(6HGV) [A] G3Q602|ligand_6hgv|sdf|1|dock4
  -GOLD-  10202014243D 1   1.00000     0.00000

 60 61  0  0  0  0  0  0  0  0  2 V2000
   -8.1609  -27.6153  -34.1070 O   0  0  0  0  0  0  0  0  0  0  0  0
   -9.3572  -27.1675  -34.6158 C   0  0  0  0  0  0  0  0  0  0  0  0
   -9.8965  -26.0979  -33.9687 C   0  0  0  0  0  0  0  0  0  0  0  0
  -11.0912  -25.6290  -34.3892 C   0  0  0  0  0  0  0  0  0  0  0  0
  -11.6976  -26.2322  -35.4457 C   0  0  0  0  0  0  0  0  0  0  0  0
  -12.9683  -25.6915  -35.7921 N   0  0  0  0  0  0  0  0  0  0  0  0
  -13.8010  -25.7998  -36.9563 C   0  0  0  0  0  0  0  0  0  0  0  0
  -13.6114  -26.5036  -37.8473 O   0  0  0  0  0  0  0  0  0  0  0  0
  -15.0279  -25.0312  -36.8020 N   0  0  0  0  0  0  0  0  0  0  0  0
  -16.1449  -24.8915  -37.7558 C   0  0  0  0  0  0  0  0  0  0  0  0
  -16.2985  -23.5435  -38.3513 C   0  0  0  0  0  0  0  0  0  0  0  0
  -17.5229  -23.4449  -39.2701 C   0  0  0  0  0  0  0  0  0  0  0  0
  -18.8297  -23.7986  -38.6300 C   0  0  0  0  0  0  0  0  0  0  0  0
  -18.5925  -25.0935  -37.9229 C   0  0  0  0  0  0  0  0  0  0  0  0
  -17.4146  -24.9972  -37.0061 C   0  0  0  0  0  0  0  0  0  0  0  0
  -17.3944  -25.8565  -36.4030 H   0  0  0  0  0  0  0  0  0  0  0  0
  -17.5355  -24.1476  -36.4011 H   0  0  0  0  0  0  0  0  0  0  0  0
  -19.4499  -25.3349  -37.3670 H   0  0  0  0  0  0  0  0  0  0  0  0
  -18.4182  -25.8409  -38.6396 H   0  0  0  0  0  0  0  0  0  0  0  0
  -19.5672  -23.8965  -39.3709 H   0  0  0  0  0  0  0  0  0  0  0  0
  -19.1068  -23.0407  -37.9582 H   0  0  0  0  0  0  0  0  0  0  0  0
  -17.6187  -22.4600  -39.6212 H   0  0  0  0  0  0  0  0  0  0  0  0
  -17.4027  -24.0967  -40.0846 H   0  0  0  0  0  0  0  0  0  0  0  0
  -15.4469  -23.3134  -38.9209 H   0  0  0  0  0  0  0  0  0  0  0  0
  -16.4100  -22.8334  -37.5859 H   0  0  0  0  0  0  0  0  0  0  0  0
  -16.0079  -25.5584  -38.5552 H   0  0  0  0  0  0  0  0  0  0  0  0
  -15.1914  -24.5057  -35.9552 H   0  0  0  0  0  0  0  0  0  0  0  0
  -13.4583  -25.0955  -35.1403 H   0  0  0  0  0  0  0  0  0  0  0  0
  -11.1979  -27.3362  -36.0835 C   0  0  0  0  0  0  0  0  0  0  0  0
   -9.9848  -27.8105  -35.6698 C   0  0  0  0  0  0  0  0  0  0  0  0
   -9.5276  -28.6378  -36.1271 H   0  0  0  0  0  0  0  0  0  0  0  0
  -11.7436  -27.7861  -36.8596 H   0  0  0  0  0  0  0  0  0  0  0  0
  -11.5519  -24.8132  -33.9151 H   0  0  0  0  0  0  0  0  0  0  0  0
   -9.3847  -25.6585  -33.1640 H   0  0  0  0  0  0  0  0  0  0  0  0
   -8.0661  -28.9221  -34.5354 C   0  0  0  0  0  0  0  0  0  0  0  0
   -7.1332  -29.7410  -33.6658 C   0  0  0  0  0  0  0  0  0  0  0  0
   -5.8818  -29.1626  -33.8017 O   0  0  0  0  0  0  0  0  0  0  0  0
   -5.4584  -29.0374  -32.8712 H   0  0  0  0  0  0  0  0  0  0  0  0
   -7.0664  -31.2039  -34.0960 C   0  0  0  0  0  0  0  0  0  0  0  0
   -5.8231  -31.8455  -33.7025 N   0  3  0  0  0  0  0  0  0  0  0  0
   -5.0465  -32.3729  -34.8113 C   0  0  0  0  0  0  0  0  0  0  0  0
   -5.8896  -33.1976  -35.7559 C   0  0  0  0  0  0  0  0  0  0  0  0
   -5.8951  -34.1981  -35.4373 H   0  0  0  0  0  0  0  0  0  0  0  0
   -5.4875  -33.1409  -36.7242 H   0  0  0  0  0  0  0  0  0  0  0  0
   -6.8719  -32.8270  -35.7626 H   0  0  0  0  0  0  0  0  0  0  0  0
   -3.9303  -33.2861  -34.2982 C   0  0  0  0  0  0  0  0  0  0  0  0
   -3.9806  -34.2116  -34.7917 H   0  0  0  0  0  0  0  0  0  0  0  0
   -2.9987  -32.8396  -34.4858 H   0  0  0  0  0  0  0  0  0  0  0  0
   -4.0460  -33.4337  -33.2650 H   0  0  0  0  0  0  0  0  0  0  0  0
   -4.5007  -31.1914  -35.5939 C   0  0  0  0  0  0  0  0  0  0  0  0
   -4.9744  -31.1425  -36.5298 H   0  0  0  0  0  0  0  0  0  0  0  0
   -3.4665  -31.3100  -35.7309 H   0  0  0  0  0  0  0  0  0  0  0  0
   -4.6840  -30.3047  -35.0623 H   0  0  0  0  0  0  0  0  0  0  0  0
   -6.0647  -32.5974  -33.0730 H   0  0  0  0  0  0  0  0  0  0  0  0
   -5.2773  -31.1544  -33.2079 H   0  0  0  0  0  0  0  0  0  0  0  0
   -7.8751  -31.7072  -33.6542 H   0  0  0  0  0  0  0  0  0  0  0  0
   -7.1621  -31.2374  -35.1411 H   0  0  0  0  0  0  0  0  0  0  0  0
   -7.4263  -29.7082  -32.6580 H   0  0  0  0  0  0  0  0  0  0  0  0
   -9.0156  -29.3693  -34.5076 H   0  0  0  0  0  0  0  0  0  0  0  0
   -7.6984  -28.9423  -35.5187 H   0  0  0  0  0  0  0  0  0  0  0  0
  1  2  1  0  0  0  0
  1 35  1  0  0  0  0
  2  3  2  0  0  0  0
  2 30  1  0  0  0  0
  3  4  1  0  0  0  0
  3 34  1  0  0  0  0
  4  5  2  0  0  0  0
  4 33  1  0  0  0  0
  5  6  1  0  0  0  0
  5 29  1  0  0  0  0
  6  7  1  0  0  0  0
  6 28  1  0  0  0  0
  7  8  2  0  0  0  0
  7  9  1  0  0  0  0
  9 10  1  0  0  0  0
  9 27  1  0  0  0  0
 10 11  1  0  0  0  0
 10 15  1  0  0  0  0
 10 26  1  0  0  0  0
 11 12  1  0  0  0  0
 11 24  1  0  0  0  0
 11 25  1  0  0  0  0
 12 13  1  0  0  0  0
 12 22  1  0  0  0  0
 12 23  1  0  0  0  0
 13 14  1  0  0  0  0
 13 20  1  0  0  0  0
 13 21  1  0  0  0  0
 14 15  1  0  0  0  0
 14 18  1  0  0  0  0
 14 19  1  0  0  0  0
 15 16  1  0  0  0  0
 15 17  1  0  0  0  0
 29 30  2  0  0  0  0
 29 32  1  0  0  0  0
 30 31  1  0  0  0  0
 35 36  1  0  0  0  0
 35 59  1  0  0  0  0
 35 60  1  0  0  0  0
 36 37  1  0  0  0  0
 36 39  1  0  0  0  0
 36 58  1  0  0  0  0
 37 38  1  0  0  0  0
 39 40  1  0  0  0  0
 39 56  1  0  0  0  0
 39 57  1  0  0  0  0
 40 41  1  0  0  0  0
 40 54  1  0  0  0  0
 40 55  1  0  0  0  0
 41 42  1  0  0  0  0
 41 46  1  0  0  0  0
 41 50  1  0  0  0  0
 42 43  1  0  0  0  0
 42 44  1  0  0  0  0
 42 45  1  0  0  0  0
 46 47  1  0  0  0  0
 46 48  1  0  0  0  0
 46 49  1  0  0  0  0
 50 51  1  0  0  0  0
 50 52  1  0  0  0  0
 50 53  1  0  0  0  0
M  CHG  1  40   1
M  END
> <CanonicalPdbName>
6HGV-G3Q_602_A

> <Gold.Version>
5.2

> <Gold.Id.Protein>
6HGV|6HGV_protein|mol2

> <Gold.PLP.Fitness>
82.6273

> <Gold.PLP.PLP>
-75.8632

> <Gold.PLP.part.hbond>
-7.1099

> <Gold.PLP.part.metal>
0.0000

> <Gold.PLP.part.buried>
10.2279

> <Gold.PLP.part.nonpolar>
-79.9233

> <Gold.PLP.part.repulsive>
0.0538

> <Gold.PLP.ligand.clash>
8.9825

> <Gold.PLP.ligand.torsion>
1.3494

> <Gold.PLP.Chemscore.Hbond>
2.7179

> <Gold.PLP.Chemscore.CHOScore>
0.0000

> <Gold.PLP.Chemscore.Metal>
0.0000

> <Gold.Chemscore.Hbonds>
donor molecule, donor type, donor heavy atom, donor atom, acceptor molecule, acceptor atom, score
      L1  H     6    28       P1   853  0.70
      L1  H     9    27       P1   853  0.67
      P1  H  1256  3855       L1     8  0.06
      P1  H  1247  3847       L1     8  0.80
      P1  H  1931  4507       L1     8  0.48

> <Gold.PLP.Chemscore.Internal.Correction>
8.0181

> <Gold.Protein.RotatedTorsions>
[ 3525  925  924  922 ] final -125.77 input   59.99 | X-H torsion
[ 3781 1176 1175 1172 ] final -125.12 input   60.00 | X-H torsion
[ 4531 1957 1955 1953 ] final  -84.37 input   60.00 | X-H torsion
[ 3847 1247 1246 1244 ] final  154.98 input   60.00 | X-H torsion
[ 4507 1931 1930 1928 ] final  -21.50 input   60.00 | X-H torsion
[ 3677 1070 1069 1066 ] final   76.45 input   60.00 | X-H torsion

> <Gold.Protein.ActiveResidues>
 GLY266  PHE267  PRO268  GLU269  MET310  HIS334  ASP335  TRP336  GLY337  GLY338 
 MET339  LEU340  TRP342  TYR343  LEU358  ASN359  THR360  PRO361  ILE363  ALA365 
 MET369  SER370  PRO371  LEU372  GLU373  SER374  ILE375  LYS376  ALA377  ASN378 
 VAL380  PHE381  ASP382  TYR383  GLN384  PHE387  GLN388  LEU397  SER407  LEU408 
 PHE409  ARG410  LEU417  MET419  LEU428  PHE429  PHE459  TRP465  TYR466  ASN468 
 MET469  GLU470  ASN472  TRP473  ALA476  ASP496  PHE497  VAL498  LEU499  MET503 
 HIS524  TRP525 

> <Gold.Protein.RotatedAtoms>
   -2.9362  -29.9685  -29.0053 H   0  0  0  0  0  0  0  0  0  0  0  0  # atno 3525 bound_to 925 
  -12.2177  -22.2949  -30.3485 H   0  0  0  0  0  0  0  0  0  0  0  0  # atno 3677 bound_to 1070
   -9.4205  -36.3114  -33.6842 H   0  0  0  0  0  0  0  0  0  0  0  0  # atno 3781 bound_to 1176
  -14.4179  -27.7603  -37.9283 H   0  0  0  0  0  0  0  0  0  0  0  0  # atno 3847 bound_to 1247
  -13.4641  -25.3787  -39.3604 H   0  0  0  0  0  0  0  0  0  0  0  0  # atno 4507 bound_to 1931
   -1.6268  -32.3809  -36.9208 H   0  0  0  0  0  0  0  0  0  0  0  0  # atno 4531 bound_to 1957
   -2.1546  -30.1827  -30.4164 LP  0  0  0  0  0  0  0  0  0  0  0  0  # atno 5201 bound_to 925 
   -3.6520  -29.5314  -30.3998 LP  0  0  0  0  0  0  0  0  0  0  0  0  # atno 5202 bound_to 925 
   -9.9099  -37.1289  -32.3650 LP  0  0  0  0  0  0  0  0  0  0  0  0  # atno 5205 bound_to 1176
  -10.7847  -37.1967  -33.7422 LP  0  0  0  0  0  0  0  0  0  0  0  0  # atno 5206 bound_to 1176
   -1.8153  -33.9973  -36.9105 LP  0  0  0  0  0  0  0  0  0  0  0  0  # atno 5213 bound_to 1957
   -3.0982  -33.0211  -36.6498 LP  0  0  0  0  0  0  0  0  0  0  0  0  # atno 5214 bound_to 1957
  -15.2076  -28.9565  -37.1581 LP  0  0  0  0  0  0  0  0  0  0  0  0  # atno 5227 bound_to 1247
  -15.9444  -27.5225  -37.4174 LP  0  0  0  0  0  0  0  0  0  0  0  0  # atno 5228 bound_to 1247
  -13.2908  -24.2015  -40.4704 LP  0  0  0  0  0  0  0  0  0  0  0  0  # atno 5245 bound_to 1931
  -12.4370  -24.1483  -39.0794 LP  0  0  0  0  0  0  0  0  0  0  0  0  # atno 5246 bound_to 1931
  -12.5311  -23.7428  -31.0220 LP  0  0  0  0  0  0  0  0  0  0  0  0  # atno 5265 bound_to 1070
  -11.1034  -23.0009  -31.3014 LP  0  0  0  0  0  0  0  0  0  0  0  0  # atno 5266 bound_to 1070

$$$$
(6HGV) [A] G3Q602|ligand_6hgv|sdf|1|dock9
  -GOLD-  10202014243D 1   1.00000     0.00000

 60 61  0  0  0  0  0  0  0  0  2 V2000
   -8.2895  -27.5288  -33.9998 O   0  0  0  0  0  0  0  0  0  0  0  0
   -9.4016  -27.0130  -34.6227 C   0  0  0  0  0  0  0  0  0  0  0  0
   -9.8917  -25.8670  -34.0747 C   0  0  0  0  0  0  0  0  0  0  0  0
  -11.0068  -25.3253  -34.6106 C   0  0  0  0  0  0  0  0  0  0  0  0
  -11.5842  -25.9355  -35.6792 C   0  0  0  0  0  0  0  0  0  0  0  0
  -12.7740  -25.3118  -36.1508 N   0  0  0  0  0  0  0  0  0  0  0  0
  -13.6713  -25.5943  -37.2350 C   0  0  0  0  0  0  0  0  0  0  0  0
  -13.6362  -26.5325  -37.9011 O   0  0  0  0  0  0  0  0  0  0  0  0
  -14.7579  -24.6266  -37.2876 N   0  0  0  0  0  0  0  0  0  0  0  0
  -15.8876  -24.5716  -38.2350 C   0  0  0  0  0  0  0  0  0  0  0  0
  -16.2022  -23.2225  -38.7609 C   0  0  0  0  0  0  0  0  0  0  0  0
  -17.4336  -23.2227  -39.6757 C   0  0  0  0  0  0  0  0  0  0  0  0
  -18.6866  -23.7609  -39.0569 C   0  0  0  0  0  0  0  0  0  0  0  0
  -18.2949  -25.0530  -38.4167 C   0  0  0  0  0  0  0  0  0  0  0  0
  -17.1327  -24.8650  -37.4940 C   0  0  0  0  0  0  0  0  0  0  0  0
  -17.0085  -25.7455  -36.9357 H   0  0  0  0  0  0  0  0  0  0  0  0
  -17.3508  -24.0677  -36.8465 H   0  0  0  0  0  0  0  0  0  0  0  0
  -19.1153  -25.4224  -37.8754 H   0  0  0  0  0  0  0  0  0  0  0  0
  -18.0364  -25.7369  -39.1704 H   0  0  0  0  0  0  0  0  0  0  0  0
  -19.4105  -23.9073  -39.8032 H   0  0  0  0  0  0  0  0  0  0  0  0
  -19.0486  -23.0765  -38.3476 H   0  0  0  0  0  0  0  0  0  0  0  0
  -17.6467  -22.2394  -39.9760 H   0  0  0  0  0  0  0  0  0  0  0  0
  -17.2406  -23.8131  -40.5223 H   0  0  0  0  0  0  0  0  0  0  0  0
  -15.3863  -22.8644  -39.3164 H   0  0  0  0  0  0  0  0  0  0  0  0
  -16.3937  -22.5707  -37.9603 H   0  0  0  0  0  0  0  0  0  0  0  0
  -15.6762  -25.1757  -39.0673 H   0  0  0  0  0  0  0  0  0  0  0  0
  -14.7967  -23.8738  -36.6154 H   0  0  0  0  0  0  0  0  0  0  0  0
  -13.1341  -24.4922  -35.6832 H   0  0  0  0  0  0  0  0  0  0  0  0
  -11.1371  -27.1119  -36.2192 C   0  0  0  0  0  0  0  0  0  0  0  0
  -10.0037  -27.6609  -35.6885 C   0  0  0  0  0  0  0  0  0  0  0  0
   -9.5880  -28.5481  -36.0661 H   0  0  0  0  0  0  0  0  0  0  0  0
  -11.6614  -27.5585  -37.0118 H   0  0  0  0  0  0  0  0  0  0  0  0
  -11.4282  -24.4483  -34.2158 H   0  0  0  0  0  0  0  0  0  0  0  0
   -9.4041  -25.4264  -33.2558 H   0  0  0  0  0  0  0  0  0  0  0  0
   -8.2360  -28.8432  -34.4122 C   0  0  0  0  0  0  0  0  0  0  0  0
   -7.1028  -29.6024  -33.7515 C   0  0  0  0  0  0  0  0  0  0  0  0
   -5.9449  -28.9146  -34.0760 O   0  0  0  0  0  0  0  0  0  0  0  0
   -5.4596  -29.4017  -34.8427 H   0  0  0  0  0  0  0  0  0  0  0  0
   -6.9953  -31.0415  -34.2485 C   0  0  0  0  0  0  0  0  0  0  0  0
   -5.8220  -31.7250  -33.7304 N   0  3  0  0  0  0  0  0  0  0  0  0
   -4.9113  -32.2074  -34.7544 C   0  0  0  0  0  0  0  0  0  0  0  0
   -3.6403  -32.7739  -34.1654 C   0  0  0  0  0  0  0  0  0  0  0  0
   -2.9306  -32.0071  -34.0614 H   0  0  0  0  0  0  0  0  0  0  0  0
   -3.2610  -33.5180  -34.8016 H   0  0  0  0  0  0  0  0  0  0  0  0
   -3.8462  -33.1903  -33.2237 H   0  0  0  0  0  0  0  0  0  0  0  0
   -4.4993  -31.0656  -35.6870 C   0  0  0  0  0  0  0  0  0  0  0  0
   -3.4518  -31.0241  -35.7479 H   0  0  0  0  0  0  0  0  0  0  0  0
   -4.8991  -31.2333  -36.6433 H   0  0  0  0  0  0  0  0  0  0  0  0
   -4.8643  -30.1563  -35.3096 H   0  0  0  0  0  0  0  0  0  0  0  0
   -5.6117  -33.3286  -35.5019 C   0  0  0  0  0  0  0  0  0  0  0  0
   -5.1422  -34.2419  -35.2831 H   0  0  0  0  0  0  0  0  0  0  0  0
   -5.5593  -33.1467  -36.5347 H   0  0  0  0  0  0  0  0  0  0  0  0
   -6.6178  -33.3722  -35.2048 H   0  0  0  0  0  0  0  0  0  0  0  0
   -6.1529  -32.5044  -33.1799 H   0  0  0  0  0  0  0  0  0  0  0  0
   -5.3390  -31.0707  -33.1315 H   0  0  0  0  0  0  0  0  0  0  0  0
   -7.8608  -31.5529  -33.9452 H   0  0  0  0  0  0  0  0  0  0  0  0
   -6.9521  -31.0181  -35.2974 H   0  0  0  0  0  0  0  0  0  0  0  0
   -7.2168  -29.6231  -32.7079 H   0  0  0  0  0  0  0  0  0  0  0  0
   -9.1373  -29.3235  -34.1684 H   0  0  0  0  0  0  0  0  0  0  0  0
   -8.0908  -28.8782  -35.4516 H   0  0  0  0  0  0  0  0  0  0  0  0
  1  2  1  0  0  0  0
  1 35  1  0  0  0  0
  2  3  2  0  0  0  0
  2 30  1  0  0  0  0
  3  4  1  0  0  0  0
  3 34  1  0  0  0  0
  4  5  2  0  0  0  0
  4 33  1  0  0  0  0
  5  6  1  0  0  0  0
  5 29  1  0  0  0  0
  6  7  1  0  0  0  0
  6 28  1  0  0  0  0
  7  8  2  0  0  0  0
  7  9  1  0  0  0  0
  9 10  1  0  0  0  0
  9 27  1  0  0  0  0
 10 11  1  0  0  0  0
 10 15  1  0  0  0  0
 10 26  1  0  0  0  0
 11 12  1  0  0  0  0
 11 24  1  0  0  0  0
 11 25  1  0  0  0  0
 12 13  1  0  0  0  0
 12 22  1  0  0  0  0
 12 23  1  0  0  0  0
 13 14  1  0  0  0  0
 13 20  1  0  0  0  0
 13 21  1  0  0  0  0
 14 15  1  0  0  0  0
 14 18  1  0  0  0  0
 14 19  1  0  0  0  0
 15 16  1  0  0  0  0
 15 17  1  0  0  0  0
 29 30  2  0  0  0  0
 29 32  1  0  0  0  0
 30 31  1  0  0  0  0
 35 36  1  0  0  0  0
 35 59  1  0  0  0  0
 35 60  1  0  0  0  0
 36 37  1  0  0  0  0
 36 39  1  0  0  0  0
 36 58  1  0  0  0  0
 37 38  1  0  0  0  0
 39 40  1  0  0  0  0
 39 56  1  0  0  0  0
 39 57  1  0  0  0  0
 40 41  1  0  0  0  0
 40 54  1  0  0  0  0
 40 55  1  0  0  0  0
 41 42  1  0  0  0  0
 41 46  1  0  0  0  0
 41 50  1  0  0  0  0
 42 43  1  0  0  0  0
 42 44  1  0  0  0  0
 42 45  1  0  0  0  0
 46 47  1  0  0  0  0
 46 48  1  0  0  0  0
 46 49  1  0  0  0  0
 50 51  1  0  0  0  0
 50 52  1  0  0  0  0
 50 53  1  0  0  0  0
M  CHG  1  40   1
M  END
> <CanonicalPdbName>
6HGV-G3Q_602_A

> <Gold.Version>
5.2

> <Gold.Id.Protein>
6HGV|6HGV_protein|mol2

> <Gold.PLP.Fitness>
82.1492

> <Gold.PLP.PLP>
-75.6362

> <Gold.PLP.part.hbond>
-7.9563

> <Gold.PLP.part.metal>
0.0000

> <Gold.PLP.part.buried>
11.2267

> <Gold.PLP.part.nonpolar>
-81.2956

> <Gold.PLP.part.repulsive>
0.0567

> <Gold.PLP.ligand.clash>
9.3325

> <Gold.PLP.ligand.torsion>
0.7989

> <Gold.PLP.Chemscore.Hbond>
2.5827

> <Gold.PLP.Chemscore.CHOScore>
0.0000

> <Gold.PLP.Chemscore.Metal>
0.0000

> <Gold.Chemscore.Hbonds>
donor molecule, donor type, donor heavy atom, donor atom, acceptor molecule, acceptor atom, score
      L1  H     6    28       P1   853  0.78
      L1  H     9    27       P1   853  0.94
      P1  H  1256  3855       L1     8  0.08
      P1  H  1247  3847       L1     8  0.75
      P1  H  1931  4507       L1     8  0.02

> <Gold.PLP.Chemscore.Internal.Correction>
8.0181

> <Gold.Protein.RotatedTorsions>
[ 3525  925  924  922 ] final  129.33 input   59.99 | X-H torsion
[ 3781 1176 1175 1172 ] final   57.76 input   60.00 | X-H torsion
[ 4531 1957 1955 1953 ] final   92.41 input   60.00 | X-H torsion
[ 3847 1247 1246 1244 ] final -172.68 input   60.00 | X-H torsion
[ 4507 1931 1930 1928 ] final  -45.75 input   60.00 | X-H torsion
[ 3677 1070 1069 1066 ] final -152.95 input   60.00 | X-H torsion

> <Gold.Protein.ActiveResidues>
 GLY266  PHE267  PRO268  GLU269  MET310  HIS334  ASP335  TRP336  GLY337  GLY338 
 MET339  LEU340  TRP342  TYR343  LEU358  ASN359  THR360  PRO361  ILE363  ALA365 
 MET369  SER370  PRO371  LEU372  GLU373  SER374  ILE375  LYS376  ALA377  ASN378 
 VAL380  PHE381  ASP382  TYR383  GLN384  PHE387  GLN388  LEU397  SER407  LEU408 
 PHE409  ARG410  LEU417  MET419  LEU428  PHE429  PHE459  TRP465  TYR466  ASN468 
 MET469  GLU470  ASN472  TRP473  ALA476  ASP496  PHE497  VAL498  LEU499  MET503 
 HIS524  TRP525 

> <Gold.Protein.RotatedAtoms>
   -2.0784  -30.2344  -30.1874 H   0  0  0  0  0  0  0  0  0  0  0  0  # atno 3525 bound_to 925 
  -11.1555  -23.1556  -31.3609 H   0  0  0  0  0  0  0  0  0  0  0  0  # atno 3677 bound_to 1070
  -10.6256  -37.4439  -32.8072 H   0  0  0  0  0  0  0  0  0  0  0  0  # atno 3781 bound_to 1176
  -14.7635  -27.3700  -37.9420 H   0  0  0  0  0  0  0  0  0  0  0  0  # atno 3847 bound_to 1247
  -13.6298  -25.3207  -39.7124 H   0  0  0  0  0  0  0  0  0  0  0  0  # atno 4507 bound_to 1931
   -2.7718  -33.8491  -36.7285 H   0  0  0  0  0  0  0  0  0  0  0  0  # atno 4531 bound_to 1957
   -3.5089  -29.5758  -30.5970 LP  0  0  0  0  0  0  0  0  0  0  0  0  # atno 5201 bound_to 925 
   -3.1616  -29.8706  -29.0288 LP  0  0  0  0  0  0  0  0  0  0  0  0  # atno 5202 bound_to 925 
  -10.2043  -36.6513  -34.1646 LP  0  0  0  0  0  0  0  0  0  0  0  0  # atno 5205 bound_to 1176
   -9.2767  -36.5339  -32.8258 LP  0  0  0  0  0  0  0  0  0  0  0  0  # atno 5206 bound_to 1176
   -2.4936  -32.2459  -36.7513 LP  0  0  0  0  0  0  0  0  0  0  0  0  # atno 5213 bound_to 1957
   -1.2668  -33.2940  -37.0026 LP  0  0  0  0  0  0  0  0  0  0  0  0  # atno 5214 bound_to 1957
  -14.7310  -28.8928  -37.3695 LP  0  0  0  0  0  0  0  0  0  0  0  0  # atno 5227 bound_to 1247
  -16.0729  -27.9793  -37.1922 LP  0  0  0  0  0  0  0  0  0  0  0  0  # atno 5228 bound_to 1247
  -13.0262  -23.9418  -40.3308 LP  0  0  0  0  0  0  0  0  0  0  0  0  # atno 5245 bound_to 1931
  -12.5347  -24.4664  -38.8645 LP  0  0  0  0  0  0  0  0  0  0  0  0  # atno 5246 bound_to 1931
  -12.0643  -22.2223  -30.3855 LP  0  0  0  0  0  0  0  0  0  0  0  0  # atno 5265 bound_to 1070
  -12.6398  -23.6546  -30.9183 LP  0  0  0  0  0  0  0  0  0  0  0  0  # atno 5266 bound_to 1070

$$$$
(6HGV) [A] G3Q602|ligand_6hgv|sdf|1|dock2
  -GOLD-  10202014233D 1   1.00000     0.00000

 60 61  0  0  0  0  0  0  0  0  2 V2000
   -8.1013  -27.8758  -34.0805 O   0  0  0  0  0  0  0  0  0  0  0  0
   -9.2325  -27.3452  -34.6545 C   0  0  0  0  0  0  0  0  0  0  0  0
   -9.6767  -26.1871  -34.0932 C   0  0  0  0  0  0  0  0  0  0  0  0
  -10.8064  -25.6299  -34.5804 C   0  0  0  0  0  0  0  0  0  0  0  0
  -11.4437  -26.2374  -35.6159 C   0  0  0  0  0  0  0  0  0  0  0  0
  -12.6436  -25.5966  -36.0361 N   0  0  0  0  0  0  0  0  0  0  0  0
  -13.5430  -25.8114  -37.1340 C   0  0  0  0  0  0  0  0  0  0  0  0
  -13.4997  -26.6985  -37.8664 O   0  0  0  0  0  0  0  0  0  0  0  0
  -14.6418  -24.8563  -37.1119 N   0  0  0  0  0  0  0  0  0  0  0  0
  -15.7770  -24.7474  -38.0479 C   0  0  0  0  0  0  0  0  0  0  0  0
  -16.0421  -23.3821  -38.5587 C   0  0  0  0  0  0  0  0  0  0  0  0
  -17.2809  -23.3246  -39.4617 C   0  0  0  0  0  0  0  0  0  0  0  0
  -18.5487  -23.8181  -38.8359 C   0  0  0  0  0  0  0  0  0  0  0  0
  -18.2032  -25.1307  -38.2111 C   0  0  0  0  0  0  0  0  0  0  0  0
  -17.0260  -24.9978  -37.2978 C   0  0  0  0  0  0  0  0  0  0  0  0
  -16.9319  -25.8878  -36.7486 H   0  0  0  0  0  0  0  0  0  0  0  0
  -17.2060  -24.1986  -36.6411 H   0  0  0  0  0  0  0  0  0  0  0  0
  -19.0327  -25.4721  -37.6653 H   0  0  0  0  0  0  0  0  0  0  0  0
  -17.9791  -25.8173  -38.9733 H   0  0  0  0  0  0  0  0  0  0  0  0
  -19.2847  -23.9286  -39.5765 H   0  0  0  0  0  0  0  0  0  0  0  0
  -18.8765  -23.1264  -38.1171 H   0  0  0  0  0  0  0  0  0  0  0  0
  -17.4572  -22.3308  -39.7512 H   0  0  0  0  0  0  0  0  0  0  0  0
  -17.1194  -23.9144  -40.3154 H   0  0  0  0  0  0  0  0  0  0  0  0
  -15.2177  -23.0517  -39.1187 H   0  0  0  0  0  0  0  0  0  0  0  0
  -16.2001  -22.7306  -37.7506 H   0  0  0  0  0  0  0  0  0  0  0  0
  -15.5975  -25.3518  -38.8876 H   0  0  0  0  0  0  0  0  0  0  0  0
  -14.6863  -24.1546  -36.3868 H   0  0  0  0  0  0  0  0  0  0  0  0
  -13.0114  -24.8175  -35.5089 H   0  0  0  0  0  0  0  0  0  0  0  0
  -11.0426  -27.4252  -36.1671 C   0  0  0  0  0  0  0  0  0  0  0  0
   -9.8949  -27.9901  -35.6858 C   0  0  0  0  0  0  0  0  0  0  0  0
   -9.5126  -28.8870  -36.0755 H   0  0  0  0  0  0  0  0  0  0  0  0
  -11.6111  -27.8682  -36.9307 H   0  0  0  0  0  0  0  0  0  0  0  0
  -11.1938  -24.7429  -34.1732 H   0  0  0  0  0  0  0  0  0  0  0  0
   -9.1438  -25.7492  -33.3015 H   0  0  0  0  0  0  0  0  0  0  0  0
   -8.2152  -29.2357  -34.2759 C   0  0  0  0  0  0  0  0  0  0  0  0
   -6.9064  -29.9589  -34.0285 C   0  0  0  0  0  0  0  0  0  0  0  0
   -6.1732  -29.8274  -35.1965 O   0  0  0  0  0  0  0  0  0  0  0  0
   -5.9492  -30.7614  -35.5683 H   0  0  0  0  0  0  0  0  0  0  0  0
   -7.1064  -31.4398  -33.7179 C   0  0  0  0  0  0  0  0  0  0  0  0
   -7.7561  -32.1552  -34.8035 N   0  3  0  0  0  0  0  0  0  0  0  0
   -7.0592  -33.3573  -35.2277 C   0  0  0  0  0  0  0  0  0  0  0  0
   -7.0800  -34.4324  -34.1661 C   0  0  0  0  0  0  0  0  0  0  0  0
   -6.2500  -34.3159  -33.5336 H   0  0  0  0  0  0  0  0  0  0  0  0
   -7.0416  -35.3767  -34.6235 H   0  0  0  0  0  0  0  0  0  0  0  0
   -7.9629  -34.3517  -33.6035 H   0  0  0  0  0  0  0  0  0  0  0  0
   -5.5886  -33.0497  -35.5208 C   0  0  0  0  0  0  0  0  0  0  0  0
   -4.9782  -33.7142  -34.9836 H   0  0  0  0  0  0  0  0  0  0  0  0
   -5.4061  -33.1602  -36.5489 H   0  0  0  0  0  0  0  0  0  0  0  0
   -5.3726  -32.0639  -35.2310 H   0  0  0  0  0  0  0  0  0  0  0  0
   -7.7812  -33.9014  -36.4479 C   0  0  0  0  0  0  0  0  0  0  0  0
   -8.2595  -34.8024  -36.1988 H   0  0  0  0  0  0  0  0  0  0  0  0
   -7.0875  -34.0744  -37.2168 H   0  0  0  0  0  0  0  0  0  0  0  0
   -8.4959  -33.2037  -36.7717 H   0  0  0  0  0  0  0  0  0  0  0  0
   -7.8249  -31.5140  -35.5808 H   0  0  0  0  0  0  0  0  0  0  0  0
   -8.6830  -32.3983  -34.4844 H   0  0  0  0  0  0  0  0  0  0  0  0
   -6.1621  -31.8617  -33.5364 H   0  0  0  0  0  0  0  0  0  0  0  0
   -7.6941  -31.5110  -32.8507 H   0  0  0  0  0  0  0  0  0  0  0  0
   -6.3770  -29.5250  -33.2322 H   0  0  0  0  0  0  0  0  0  0  0  0
   -8.9336  -29.6251  -33.6165 H   0  0  0  0  0  0  0  0  0  0  0  0
   -8.5105  -29.4236  -35.2658 H   0  0  0  0  0  0  0  0  0  0  0  0
  1  2  1  0  0  0  0
  1 35  1  0  0  0  0
  2  3  2  0  0  0  0
  2 30  1  0  0  0  0
  3  4  1  0  0  0  0
  3 34  1  0  0  0  0
  4  5  2  0  0  0  0
  4 33  1  0  0  0  0
  5  6  1  0  0  0  0
  5 29  1  0  0  0  0
  6  7  1  0  0  0  0
  6 28  1  0  0  0  0
  7  8  2  0  0  0  0
  7  9  1  0  0  0  0
  9 10  1  0  0  0  0
  9 27  1  0  0  0  0
 10 11  1  0  0  0  0
 10 15  1  0  0  0  0
 10 26  1  0  0  0  0
 11 12  1  0  0  0  0
 11 24  1  0  0  0  0
 11 25  1  0  0  0  0
 12 13  1  0  0  0  0
 12 22  1  0  0  0  0
 12 23  1  0  0  0  0
 13 14  1  0  0  0  0
 13 20  1  0  0  0  0
 13 21  1  0  0  0  0
 14 15  1  0  0  0  0
 14 18  1  0  0  0  0
 14 19  1  0  0  0  0
 15 16  1  0  0  0  0
 15 17  1  0  0  0  0
 29 30  2  0  0  0  0
 29 32  1  0  0  0  0
 30 31  1  0  0  0  0
 35 36  1  0  0  0  0
 35 59  1  0  0  0  0
 35 60  1  0  0  0  0
 36 37  1  0  0  0  0
 36 39  1  0  0  0  0
 36 58  1  0  0  0  0
 37 38  1  0  0  0  0
 39 40  1  0  0  0  0
 39 56  1  0  0  0  0
 39 57  1  0  0  0  0
 40 41  1  0  0  0  0
 40 54  1  0  0  0  0
 40 55  1  0  0  0  0
 41 42  1  0  0  0  0
 41 46  1  0  0  0  0
 41 50  1  0  0  0  0
 42 43  1  0  0  0  0
 42 44  1  0  0  0  0
 42 45  1  0  0  0  0
 46 47  1  0  0  0  0
 46 48  1  0  0  0  0
 46 49  1  0  0  0  0
 50 51  1  0  0  0  0
 50 52  1  0  0  0  0
 50 53  1  0  0  0  0
M  CHG  1  40   1
M  END
> <CanonicalPdbName>
6HGV-G3Q_602_A

> <Gold.Version>
5.2

> <Gold.Id.Protein>
6HGV|6HGV_protein|mol2

> <Gold.PLP.Fitness>
81.6283

> <Gold.PLP.PLP>
-72.9756

> <Gold.PLP.part.hbond>
-7.3912

> <Gold.PLP.part.metal>
0.0000

> <Gold.PLP.part.buried>
10.1390

> <Gold.PLP.part.nonpolar>
-77.1985

> <Gold.PLP.part.repulsive>
0.0557

> <Gold.PLP.ligand.clash>
7.9435

> <Gold.PLP.ligand.torsion>
1.1270

> <Gold.PLP.Chemscore.Hbond>
2.8467

> <Gold.PLP.Chemscore.CHOScore>
0.0000

> <Gold.PLP.Chemscore.Metal>
0.0000

> <Gold.Chemscore.Hbonds>
donor molecule, donor type, donor heavy atom, donor atom, acceptor molecule, acceptor atom, score
      L1  H     6    28       P1   853  0.85
      L1  H     9    27       P1   853  0.98
      P1  H  1256  3855       L1     8  0.22
      P1  H  1247  3847       L1     8  0.79

> <Gold.PLP.Chemscore.Internal.Correction>
8.2151

> <Gold.Protein.RotatedTorsions>
[ 3525  925  924  922 ] final   64.88 input   59.99 | X-H torsion
[ 3781 1176 1175 1172 ] final    2.03 input   60.00 | X-H torsion
[ 4531 1957 1955 1953 ] final -136.46 input   60.00 | X-H torsion
[ 3847 1247 1246 1244 ] final  148.16 input   60.00 | X-H torsion
[ 4507 1931 1930 1928 ] final -148.98 input   60.00 | X-H torsion
[ 3677 1070 1069 1066 ] final -121.47 input   60.00 | X-H torsion

> <Gold.Protein.ActiveResidues>
 GLY266  PHE267  PRO268  GLU269  MET310  HIS334  ASP335  TRP336  GLY337  GLY338 
 MET339  LEU340  TRP342  TYR343  LEU358  ASN359  THR360  PRO361  ILE363  ALA365 
 MET369  SER370  PRO371  LEU372  GLU373  SER374  ILE375  LYS376  ALA377  ASN378 
 VAL380  PHE381  ASP382  TYR383  GLN384  PHE387  GLN388  LEU397  SER407  LEU408 
 PHE409  ARG410  LEU417  MET419  LEU428  PHE429  PHE459  TRP465  TYR466  ASN468 
 MET469  GLU470  ASN472  TRP473  ALA476  ASP496  PHE497  VAL498  LEU499  MET503 
 HIS524  TRP525 

> <Gold.Protein.RotatedAtoms>
   -2.7331  -29.8877  -30.8568 H   0  0  0  0  0  0  0  0  0  0  0  0  # atno 3525 bound_to 925 
  -11.4449  -23.5632  -31.4508 H   0  0  0  0  0  0  0  0  0  0  0  0  # atno 3677 bound_to 1070
  -10.8075  -37.2527  -33.6417 H   0  0  0  0  0  0  0  0  0  0  0  0  # atno 3781 bound_to 1176
  -14.3732  -27.8602  -37.9077 H   0  0  0  0  0  0  0  0  0  0  0  0  # atno 3847 bound_to 1247
  -13.2085  -24.1163  -40.4377 H   0  0  0  0  0  0  0  0  0  0  0  0  # atno 4507 bound_to 1931
   -1.2594  -33.1118  -37.0033 H   0  0  0  0  0  0  0  0  0  0  0  0  # atno 4531 bound_to 1957
   -3.7378  -29.5655  -29.6179 LP  0  0  0  0  0  0  0  0  0  0  0  0  # atno 5201 bound_to 925 
   -2.2734  -30.2300  -29.3337 LP  0  0  0  0  0  0  0  0  0  0  0  0  # atno 5202 bound_to 925 
   -9.4851  -36.3148  -33.7820 LP  0  0  0  0  0  0  0  0  0  0  0  0  # atno 5205 bound_to 1176
   -9.8127  -37.0630  -32.3680 LP  0  0  0  0  0  0  0  0  0  0  0  0  # atno 5206 bound_to 1176
   -2.6275  -33.9574  -36.7554 LP  0  0  0  0  0  0  0  0  0  0  0  0  # atno 5213 bound_to 1957
   -2.6558  -32.3250  -36.7218 LP  0  0  0  0  0  0  0  0  0  0  0  0  # atno 5214 bound_to 1957
  -15.3125  -28.9343  -37.1254 LP  0  0  0  0  0  0  0  0  0  0  0  0  # atno 5227 bound_to 1247
  -15.8845  -27.4443  -37.4709 LP  0  0  0  0  0  0  0  0  0  0  0  0  # atno 5228 bound_to 1247
  -12.4558  -24.2408  -39.0004 LP  0  0  0  0  0  0  0  0  0  0  0  0  # atno 5245 bound_to 1931
  -13.5295  -25.3803  -39.4645 LP  0  0  0  0  0  0  0  0  0  0  0  0  # atno 5246 bound_to 1931
  -11.5988  -22.1879  -30.5948 LP  0  0  0  0  0  0  0  0  0  0  0  0  # atno 5265 bound_to 1070
  -12.8139  -23.2785  -30.6185 LP  0  0  0  0  0  0  0  0  0  0  0  0  # atno 5266 bound_to 1070

$$$$
(6HGV) [A] G3Q602|ligand_6hgv|sdf|1|dock8
  -GOLD-  10202014243D 1   1.00000     0.00000

 60 61  0  0  0  0  0  0  0  0  2 V2000
   -8.2550  -27.7821  -33.9954 O   0  0  0  0  0  0  0  0  0  0  0  0
   -9.3584  -27.2403  -34.6117 C   0  0  0  0  0  0  0  0  0  0  0  0
   -9.8732  -26.1343  -34.0073 C   0  0  0  0  0  0  0  0  0  0  0  0
  -10.9819  -25.5720  -34.5354 C   0  0  0  0  0  0  0  0  0  0  0  0
  -11.5282  -26.1221  -35.6518 C   0  0  0  0  0  0  0  0  0  0  0  0
  -12.7139  -25.4825  -36.1126 N   0  0  0  0  0  0  0  0  0  0  0  0
  -13.6060  -25.7328  -37.2089 C   0  0  0  0  0  0  0  0  0  0  0  0
  -13.5696  -26.6524  -37.9004 O   0  0  0  0  0  0  0  0  0  0  0  0
  -14.6899  -24.7611  -37.2407 N   0  0  0  0  0  0  0  0  0  0  0  0
  -15.8143  -24.6771  -38.1924 C   0  0  0  0  0  0  0  0  0  0  0  0
  -16.0646  -23.3284  -38.7525 C   0  0  0  0  0  0  0  0  0  0  0  0
  -17.2932  -23.2940  -39.6704 C   0  0  0  0  0  0  0  0  0  0  0  0
  -18.5710  -23.7575  -39.0419 C   0  0  0  0  0  0  0  0  0  0  0  0
  -18.2411  -25.0501  -38.3687 C   0  0  0  0  0  0  0  0  0  0  0  0
  -17.0729  -24.8935  -37.4478 C   0  0  0  0  0  0  0  0  0  0  0  0
  -16.9908  -25.7647  -36.8674 H   0  0  0  0  0  0  0  0  0  0  0  0
  -17.2545  -24.0710  -36.8209 H   0  0  0  0  0  0  0  0  0  0  0  0
  -19.0787  -25.3672  -37.8207 H   0  0  0  0  0  0  0  0  0  0  0  0
  -18.0136  -25.7639  -39.1045 H   0  0  0  0  0  0  0  0  0  0  0  0
  -19.2997  -23.8886  -39.7863 H   0  0  0  0  0  0  0  0  0  0  0  0
  -18.9017  -23.0395  -38.3509 H   0  0  0  0  0  0  0  0  0  0  0  0
  -17.4597  -22.3096  -39.9956 H   0  0  0  0  0  0  0  0  0  0  0  0
  -17.1266  -23.9137  -40.5015 H   0  0  0  0  0  0  0  0  0  0  0  0
  -15.2320  -23.0227  -39.3144 H   0  0  0  0  0  0  0  0  0  0  0  0
  -16.2268  -22.6486  -37.9689 H   0  0  0  0  0  0  0  0  0  0  0  0
  -15.6299  -25.3111  -39.0088 H   0  0  0  0  0  0  0  0  0  0  0  0
  -14.7304  -24.0269  -36.5483 H   0  0  0  0  0  0  0  0  0  0  0  0
  -13.0745  -24.6751  -35.6245 H   0  0  0  0  0  0  0  0  0  0  0  0
  -11.0562  -27.2593  -36.2512 C   0  0  0  0  0  0  0  0  0  0  0  0
   -9.9290  -27.8285  -35.7282 C   0  0  0  0  0  0  0  0  0  0  0  0
   -9.4952  -28.6872  -36.1488 H   0  0  0  0  0  0  0  0  0  0  0  0
  -11.5575  -27.6623  -37.0811 H   0  0  0  0  0  0  0  0  0  0  0  0
  -11.4217  -24.7245  -34.0984 H   0  0  0  0  0  0  0  0  0  0  0  0
   -9.4092  -25.7392  -33.1523 H   0  0  0  0  0  0  0  0  0  0  0  0
   -8.3411  -29.1342  -34.2501 C   0  0  0  0  0  0  0  0  0  0  0  0
   -7.0683  -29.8671  -33.8757 C   0  0  0  0  0  0  0  0  0  0  0  0
   -6.0595  -29.2829  -34.6242 O   0  0  0  0  0  0  0  0  0  0  0  0
   -5.3215  -29.9776  -34.8073 H   0  0  0  0  0  0  0  0  0  0  0  0
   -7.1377  -31.3585  -34.1926 C   0  0  0  0  0  0  0  0  0  0  0  0
   -6.0351  -32.1050  -33.6101 N   0  3  0  0  0  0  0  0  0  0  0  0
   -5.1330  -32.6949  -34.5842 C   0  0  0  0  0  0  0  0  0  0  0  0
   -5.8691  -33.2354  -35.7881 C   0  0  0  0  0  0  0  0  0  0  0  0
   -6.1430  -34.2336  -35.6118 H   0  0  0  0  0  0  0  0  0  0  0  0
   -5.2445  -33.1875  -36.6308 H   0  0  0  0  0  0  0  0  0  0  0  0
   -6.7312  -32.6607  -35.9584 H   0  0  0  0  0  0  0  0  0  0  0  0
   -4.3688  -33.8684  -33.9661 C   0  0  0  0  0  0  0  0  0  0  0  0
   -4.4772  -34.7167  -34.5755 H   0  0  0  0  0  0  0  0  0  0  0  0
   -3.3513  -33.6213  -33.8881 H   0  0  0  0  0  0  0  0  0  0  0  0
   -4.7537  -34.0724  -33.0107 H   0  0  0  0  0  0  0  0  0  0  0  0
   -4.1993  -31.5998  -35.0692 C   0  0  0  0  0  0  0  0  0  0  0  0
   -4.4176  -31.3717  -36.0706 H   0  0  0  0  0  0  0  0  0  0  0  0
   -3.2051  -31.9287  -34.9938 H   0  0  0  0  0  0  0  0  0  0  0  0
   -4.3298  -30.7416  -34.4784 H   0  0  0  0  0  0  0  0  0  0  0  0
   -6.4399  -32.8346  -33.0411 H   0  0  0  0  0  0  0  0  0  0  0  0
   -5.5224  -31.4642  -33.0214 H   0  0  0  0  0  0  0  0  0  0  0  0
   -8.0466  -31.7261  -33.8166 H   0  0  0  0  0  0  0  0  0  0  0  0
   -7.1212  -31.4674  -35.2368 H   0  0  0  0  0  0  0  0  0  0  0  0
   -6.8536  -29.7582  -32.8537 H   0  0  0  0  0  0  0  0  0  0  0  0
   -9.1308  -29.5455  -33.6938 H   0  0  0  0  0  0  0  0  0  0  0  0
   -8.5173  -29.2870  -35.2739 H   0  0  0  0  0  0  0  0  0  0  0  0
  1  2  1  0  0  0  0
  1 35  1  0  0  0  0
  2  3  2  0  0  0  0
  2 30  1  0  0  0  0
  3  4  1  0  0  0  0
  3 34  1  0  0  0  0
  4  5  2  0  0  0  0
  4 33  1  0  0  0  0
  5  6  1  0  0  0  0
  5 29  1  0  0  0  0
  6  7  1  0  0  0  0
  6 28  1  0  0  0  0
  7  8  2  0  0  0  0
  7  9  1  0  0  0  0
  9 10  1  0  0  0  0
  9 27  1  0  0  0  0
 10 11  1  0  0  0  0
 10 15  1  0  0  0  0
 10 26  1  0  0  0  0
 11 12  1  0  0  0  0
 11 24  1  0  0  0  0
 11 25  1  0  0  0  0
 12 13  1  0  0  0  0
 12 22  1  0  0  0  0
 12 23  1  0  0  0  0
 13 14  1  0  0  0  0
 13 20  1  0  0  0  0
 13 21  1  0  0  0  0
 14 15  1  0  0  0  0
 14 18  1  0  0  0  0
 14 19  1  0  0  0  0
 15 16  1  0  0  0  0
 15 17  1  0  0  0  0
 29 30  2  0  0  0  0
 29 32  1  0  0  0  0
 30 31  1  0  0  0  0
 35 36  1  0  0  0  0
 35 59  1  0  0  0  0
 35 60  1  0  0  0  0
 36 37  1  0  0  0  0
 36 39  1  0  0  0  0
 36 58  1  0  0  0  0
 37 38  1  0  0  0  0
 39 40  1  0  0  0  0
 39 56  1  0  0  0  0
 39 57  1  0  0  0  0
 40 41  1  0  0  0  0
 40 54  1  0  0  0  0
 40 55  1  0  0  0  0
 41 42  1  0  0  0  0
 41 46  1  0  0  0  0
 41 50  1  0  0  0  0
 42 43  1  0  0  0  0
 42 44  1  0  0  0  0
 42 45  1  0  0  0  0
 46 47  1  0  0  0  0
 46 48  1  0  0  0  0
 46 49  1  0  0  0  0
 50 51  1  0  0  0  0
 50 52  1  0  0  0  0
 50 53  1  0  0  0  0
M  CHG  1  40   1
M  END
> <CanonicalPdbName>
6HGV-G3Q_602_A

> <Gold.Version>
5.2

> <Gold.Id.Protein>
6HGV|6HGV_protein|mol2

> <Gold.PLP.Fitness>
81.4808

> <Gold.PLP.PLP>
-73.0298

> <Gold.PLP.part.hbond>
-7.7731

> <Gold.PLP.part.metal>
0.0000

> <Gold.PLP.part.buried>
12.5317

> <Gold.PLP.part.nonpolar>
-78.6476

> <Gold.PLP.part.repulsive>
0.0552

> <Gold.PLP.ligand.clash>
7.6100

> <Gold.PLP.ligand.torsion>
1.2325

> <Gold.PLP.Chemscore.Hbond>
2.7771

> <Gold.PLP.Chemscore.CHOScore>
0.0000

> <Gold.PLP.Chemscore.Metal>
0.0000

> <Gold.Chemscore.Hbonds>
donor molecule, donor type, donor heavy atom, donor atom, acceptor molecule, acceptor atom, score
      L1  H     6    28       P1   853  0.85
      L1  H     9    27       P1   853  0.98
      P1  H  1256  3855       L1     8  0.18
      P1  H  1247  3847       L1     8  0.75
      P1  H  1931  4507       L1     8  0.01

> <Gold.PLP.Chemscore.Internal.Correction>
8.0181

> <Gold.Protein.RotatedTorsions>
[ 3525  925  924  922 ] final -132.53 input   59.99 | X-H torsion
[ 3781 1176 1175 1172 ] final  -59.42 input   60.00 | X-H torsion
[ 4531 1957 1955 1953 ] final   -1.39 input   60.00 | X-H torsion
[ 3847 1247 1246 1244 ] final  148.60 input   60.00 | X-H torsion
[ 4507 1931 1930 1928 ] final  -47.14 input   60.00 | X-H torsion
[ 3677 1070 1069 1066 ] final  155.91 input   60.00 | X-H torsion

> <Gold.Protein.ActiveResidues>
 GLY266  PHE267  PRO268  GLU269  MET310  HIS334  ASP335  TRP336  GLY337  GLY338 
 MET339  LEU340  TRP342  TYR343  LEU358  ASN359  THR360  PRO361  ILE363  ALA365 
 MET369  SER370  PRO371  LEU372  GLU373  SER374  ILE375  LYS376  ALA377  ASN378 
 VAL380  PHE381  ASP382  TYR383  GLN384  PHE387  GLN388  LEU397  SER407  LEU408 
 PHE409  ARG410  LEU417  MET419  LEU428  PHE429  PHE459  TRP465  TYR466  ASN468 
 MET469  GLU470  ASN472  TRP473  ALA476  ASP496  PHE497  VAL498  LEU499  MET503 
 HIS524  TRP525 

> <Gold.Protein.RotatedAtoms>
   -2.8349  -30.0120  -29.0129 H   0  0  0  0  0  0  0  0  0  0  0  0  # atno 3525 bound_to 925 
  -11.1948  -22.4626  -30.9469 H   0  0  0  0  0  0  0  0  0  0  0  0  # atno 3677 bound_to 1070
  -10.2398  -36.6808  -34.1573 H   0  0  0  0  0  0  0  0  0  0  0  0  # atno 3781 bound_to 1176
  -14.3757  -27.8537  -37.9092 H   0  0  0  0  0  0  0  0  0  0  0  0  # atno 3847 bound_to 1247
  -13.6365  -25.3131  -39.7328 H   0  0  0  0  0  0  0  0  0  0  0  0  # atno 4507 bound_to 1931
   -2.8417  -32.4841  -36.6917 H   0  0  0  0  0  0  0  0  0  0  0  0  # atno 4531 bound_to 1957
   -2.2085  -30.1508  -30.5084 LP  0  0  0  0  0  0  0  0  0  0  0  0  # atno 5201 bound_to 925 
   -3.7001  -29.5196  -30.3002 LP  0  0  0  0  0  0  0  0  0  0  0  0  # atno 5202 bound_to 925 
   -9.2655  -36.5118  -32.8649 LP  0  0  0  0  0  0  0  0  0  0  0  0  # atno 5205 bound_to 1176
  -10.6040  -37.4419  -32.7658 LP  0  0  0  0  0  0  0  0  0  0  0  0  # atno 5206 bound_to 1176
   -1.2887  -32.8673  -36.9911 LP  0  0  0  0  0  0  0  0  0  0  0  0  # atno 5213 bound_to 1957
   -2.4015  -34.0471  -36.7999 LP  0  0  0  0  0  0  0  0  0  0  0  0  # atno 5214 bound_to 1957
  -15.3058  -28.9360  -37.1273 LP  0  0  0  0  0  0  0  0  0  0  0  0  # atno 5227 bound_to 1247
  -15.8887  -27.4490  -37.4674 LP  0  0  0  0  0  0  0  0  0  0  0  0  # atno 5228 bound_to 1247
  -13.0108  -23.9299  -40.3187 LP  0  0  0  0  0  0  0  0  0  0  0  0  # atno 5245 bound_to 1931
  -12.5434  -24.4858  -38.8561 LP  0  0  0  0  0  0  0  0  0  0  0  0  # atno 5246 bound_to 1931
  -12.6917  -22.7405  -30.3722 LP  0  0  0  0  0  0  0  0  0  0  0  0  # atno 5265 bound_to 1070
  -11.9728  -23.8343  -31.3486 LP  0  0  0  0  0  0  0  0  0  0  0  0  # atno 5266 bound_to 1070

$$$$
(6HGV) [A] G3Q602|ligand_6hgv|sdf|1|dock6
  -GOLD-  10202014243D 1   1.00000     0.00000

 60 61  0  0  0  0  0  0  0  0  2 V2000
   -8.7371  -27.9663  -34.6267 O   0  0  0  0  0  0  0  0  0  0  0  0
   -9.8465  -27.2980  -35.0886 C   0  0  0  0  0  0  0  0  0  0  0  0
  -10.2785  -26.2784  -34.2966 C   0  0  0  0  0  0  0  0  0  0  0  0
  -11.3875  -25.6030  -34.6681 C   0  0  0  0  0  0  0  0  0  0  0  0
  -12.0166  -25.9576  -35.8196 C   0  0  0  0  0  0  0  0  0  0  0  0
  -13.1955  -25.2133  -36.1085 N   0  0  0  0  0  0  0  0  0  0  0  0
  -14.1205  -25.2197  -37.2061 C   0  0  0  0  0  0  0  0  0  0  0  0
  -14.1259  -25.9830  -38.0679 O   0  0  0  0  0  0  0  0  0  0  0  0
  -15.1781  -24.2381  -37.0117 N   0  0  0  0  0  0  0  0  0  0  0  0
  -16.3227  -23.9411  -37.8941 C   0  0  0  0  0  0  0  0  0  0  0  0
  -17.1240  -25.1186  -38.3025 C   0  0  0  0  0  0  0  0  0  0  0  0
  -18.2475  -24.7520  -39.2807 C   0  0  0  0  0  0  0  0  0  0  0  0
  -17.8017  -24.0627  -40.5332 C   0  0  0  0  0  0  0  0  0  0  0  0
  -16.8848  -22.9710  -40.0856 C   0  0  0  0  0  0  0  0  0  0  0  0
  -15.7996  -23.5072  -39.2069 C   0  0  0  0  0  0  0  0  0  0  0  0
  -15.0847  -22.7511  -39.0662 H   0  0  0  0  0  0  0  0  0  0  0  0
  -15.3541  -24.3241  -39.6934 H   0  0  0  0  0  0  0  0  0  0  0  0
  -16.4586  -22.5213  -40.9332 H   0  0  0  0  0  0  0  0  0  0  0  0
  -17.4444  -22.2582  -39.5553 H   0  0  0  0  0  0  0  0  0  0  0  0
  -18.6383  -23.6774  -41.0372 H   0  0  0  0  0  0  0  0  0  0  0  0
  -17.3052  -24.7496  -41.1530 H   0  0  0  0  0  0  0  0  0  0  0  0
  -18.7482  -25.6246  -39.5815 H   0  0  0  0  0  0  0  0  0  0  0  0
  -18.9257  -24.1046  -38.8081 H   0  0  0  0  0  0  0  0  0  0  0  0
  -17.5629  -25.5546  -37.4541 H   0  0  0  0  0  0  0  0  0  0  0  0
  -16.5006  -25.8199  -38.7737 H   0  0  0  0  0  0  0  0  0  0  0  0
  -16.9811  -23.2858  -37.4046 H   0  0  0  0  0  0  0  0  0  0  0  0
  -15.1819  -23.6567  -36.1859 H   0  0  0  0  0  0  0  0  0  0  0  0
  -13.5221  -24.5123  -35.4589 H   0  0  0  0  0  0  0  0  0  0  0  0
  -11.6284  -27.0073  -36.6088 C   0  0  0  0  0  0  0  0  0  0  0  0
  -10.5015  -27.6894  -36.2444 C   0  0  0  0  0  0  0  0  0  0  0  0
  -10.1295  -28.4897  -36.8134 H   0  0  0  0  0  0  0  0  0  0  0  0
  -12.1908  -27.2617  -37.4582 H   0  0  0  0  0  0  0  0  0  0  0  0
  -11.7652  -24.8161  -34.0843 H   0  0  0  0  0  0  0  0  0  0  0  0
   -9.7523  -26.0343  -33.4213 H   0  0  0  0  0  0  0  0  0  0  0  0
   -8.8897  -29.2569  -35.0867 C   0  0  0  0  0  0  0  0  0  0  0  0
   -7.8865  -30.2068  -34.4634 C   0  0  0  0  0  0  0  0  0  0  0  0
   -8.3425  -30.4511  -33.1783 O   0  0  0  0  0  0  0  0  0  0  0  0
   -9.1360  -29.8279  -32.9713 H   0  0  0  0  0  0  0  0  0  0  0  0
   -6.4814  -29.6141  -34.4001 C   0  0  0  0  0  0  0  0  0  0  0  0
   -5.5094  -30.5399  -33.8429 N   0  3  0  0  0  0  0  0  0  0  0  0
   -4.9074  -31.4322  -34.8186 C   0  0  0  0  0  0  0  0  0  0  0  0
   -4.5178  -30.7096  -36.0872 C   0  0  0  0  0  0  0  0  0  0  0  0
   -5.3273  -30.7152  -36.7559 H   0  0  0  0  0  0  0  0  0  0  0  0
   -3.6967  -31.1936  -36.5276 H   0  0  0  0  0  0  0  0  0  0  0  0
   -4.2586  -29.7179  -35.8596 H   0  0  0  0  0  0  0  0  0  0  0  0
   -5.8925  -32.5335  -35.2183 C   0  0  0  0  0  0  0  0  0  0  0  0
   -5.9781  -32.5638  -36.2644 H   0  0  0  0  0  0  0  0  0  0  0  0
   -5.5428  -33.4597  -34.8687 H   0  0  0  0  0  0  0  0  0  0  0  0
   -6.8326  -32.3323  -34.7959 H   0  0  0  0  0  0  0  0  0  0  0  0
   -3.6394  -31.9983  -34.2036 C   0  0  0  0  0  0  0  0  0  0  0  0
   -2.8031  -31.6082  -34.7043 H   0  0  0  0  0  0  0  0  0  0  0  0
   -3.6442  -33.0444  -34.2926 H   0  0  0  0  0  0  0  0  0  0  0  0
   -3.5944  -31.7336  -33.1885 H   0  0  0  0  0  0  0  0  0  0  0  0
   -5.9886  -31.0839  -33.1398 H   0  0  0  0  0  0  0  0  0  0  0  0
   -4.7887  -29.9839  -33.4053 H   0  0  0  0  0  0  0  0  0  0  0  0
   -6.1969  -29.3537  -35.3768 H   0  0  0  0  0  0  0  0  0  0  0  0
   -6.5225  -28.7497  -33.8053 H   0  0  0  0  0  0  0  0  0  0  0  0
   -7.8379  -31.1108  -34.9954 H   0  0  0  0  0  0  0  0  0  0  0  0
   -9.8540  -29.6001  -34.8527 H   0  0  0  0  0  0  0  0  0  0  0  0
   -8.7546  -29.2756  -36.1278 H   0  0  0  0  0  0  0  0  0  0  0  0
  1  2  1  0  0  0  0
  1 35  1  0  0  0  0
  2  3  2  0  0  0  0
  2 30  1  0  0  0  0
  3  4  1  0  0  0  0
  3 34  1  0  0  0  0
  4  5  2  0  0  0  0
  4 33  1  0  0  0  0
  5  6  1  0  0  0  0
  5 29  1  0  0  0  0
  6  7  1  0  0  0  0
  6 28  1  0  0  0  0
  7  8  2  0  0  0  0
  7  9  1  0  0  0  0
  9 10  1  0  0  0  0
  9 27  1  0  0  0  0
 10 11  1  0  0  0  0
 10 15  1  0  0  0  0
 10 26  1  0  0  0  0
 11 12  1  0  0  0  0
 11 24  1  0  0  0  0
 11 25  1  0  0  0  0
 12 13  1  0  0  0  0
 12 22  1  0  0  0  0
 12 23  1  0  0  0  0
 13 14  1  0  0  0  0
 13 20  1  0  0  0  0
 13 21  1  0  0  0  0
 14 15  1  0  0  0  0
 14 18  1  0  0  0  0
 14 19  1  0  0  0  0
 15 16  1  0  0  0  0
 15 17  1  0  0  0  0
 29 30  2  0  0  0  0
 29 32  1  0  0  0  0
 30 31  1  0  0  0  0
 35 36  1  0  0  0  0
 35 59  1  0  0  0  0
 35 60  1  0  0  0  0
 36 37  1  0  0  0  0
 36 39  1  0  0  0  0
 36 58  1  0  0  0  0
 37 38  1  0  0  0  0
 39 40  1  0  0  0  0
 39 56  1  0  0  0  0
 39 57  1  0  0  0  0
 40 41  1  0  0  0  0
 40 54  1  0  0  0  0
 40 55  1  0  0  0  0
 41 42  1  0  0  0  0
 41 46  1  0  0  0  0
 41 50  1  0  0  0  0
 42 43  1  0  0  0  0
 42 44  1  0  0  0  0
 42 45  1  0  0  0  0
 46 47  1  0  0  0  0
 46 48  1  0  0  0  0
 46 49  1  0  0  0  0
 50 51  1  0  0  0  0
 50 52  1  0  0  0  0
 50 53  1  0  0  0  0
M  CHG  1  40   1
M  END
> <CanonicalPdbName>
6HGV-G3Q_602_A

> <Gold.Version>
5.2

> <Gold.Id.Protein>
6HGV|6HGV_protein|mol2

> <Gold.PLP.Fitness>
81.3564

> <Gold.PLP.PLP>
-70.8566

> <Gold.PLP.part.hbond>
-4.6715

> <Gold.PLP.part.metal>
0.0000

> <Gold.PLP.part.buried>
8.8900

> <Gold.PLP.part.nonpolar>
-75.4743

> <Gold.PLP.part.repulsive>
0.0737

> <Gold.PLP.ligand.clash>
7.7172

> <Gold.PLP.ligand.torsion>
0.9345

> <Gold.PLP.Chemscore.Hbond>
3.3333

> <Gold.PLP.Chemscore.CHOScore>
0.0000

> <Gold.PLP.Chemscore.Metal>
0.0000

> <Gold.Chemscore.Hbonds>
donor molecule, donor type, donor heavy atom, donor atom, acceptor molecule, acceptor atom, score
      L1  H     6    28       P1   853  0.88
      L1  H     9    27       P1   853  0.76
      P1  H  1247  3847       L1     8  0.94
      P1  H  1931  4507       L1     8  0.75

> <Gold.PLP.Chemscore.Internal.Correction>
8.0181

> <Gold.Protein.RotatedTorsions>
[ 3525  925  924  922 ] final    0.54 input   59.99 | X-H torsion
[ 3781 1176 1175 1172 ] final    4.27 input   60.00 | X-H torsion
[ 4531 1957 1955 1953 ] final  -14.88 input   60.00 | X-H torsion
[ 3847 1247 1246 1244 ] final  177.30 input   60.00 | X-H torsion
[ 4507 1931 1930 1928 ] final  -27.30 input   60.00 | X-H torsion
[ 3677 1070 1069 1066 ] final -138.05 input   60.00 | X-H torsion

> <Gold.Protein.ActiveResidues>
 GLY266  PHE267  PRO268  GLU269  MET310  HIS334  ASP335  TRP336  GLY337  GLY338 
 MET339  LEU340  TRP342  TYR343  LEU358  ASN359  THR360  PRO361  ILE363  ALA365 
 MET369  SER370  PRO371  LEU372  GLU373  SER374  ILE375  LYS376  ALA377  ASN378 
 VAL380  PHE381  ASP382  TYR383  GLN384  PHE387  GLN388  LEU397  SER407  LEU408 
 PHE409  ARG410  LEU417  MET419  LEU428  PHE429  PHE459  TRP465  TYR466  ASN468 
 MET469  GLU470  ASN472  TRP473  ALA476  ASP496  PHE497  VAL498  LEU499  MET503 
 HIS524  TRP525 

> <Gold.Protein.RotatedAtoms>
   -3.5922  -29.5474  -30.4829 H   0  0  0  0  0  0  0  0  0  0  0  0  # atno 3525 bound_to 925 
  -11.2671  -23.3619  -31.4235 H   0  0  0  0  0  0  0  0  0  0  0  0  # atno 3677 bound_to 1070
  -10.8143  -37.2692  -33.6097 H   0  0  0  0  0  0  0  0  0  0  0  0  # atno 3781 bound_to 1176
  -14.6360  -27.4720  -37.9530 H   0  0  0  0  0  0  0  0  0  0  0  0  # atno 3847 bound_to 1247
  -13.5116  -25.3777  -39.4425 H   0  0  0  0  0  0  0  0  0  0  0  0  # atno 4507 bound_to 1931
   -2.6745  -32.3442  -36.7210 H   0  0  0  0  0  0  0  0  0  0  0  0  # atno 4531 bound_to 1957
   -3.0322  -29.9294  -29.0035 LP  0  0  0  0  0  0  0  0  0  0  0  0  # atno 5201 bound_to 925 
   -2.1139  -30.2089  -30.3246 LP  0  0  0  0  0  0  0  0  0  0  0  0  # atno 5202 bound_to 925 
   -9.5082  -36.3195  -33.8105 LP  0  0  0  0  0  0  0  0  0  0  0  0  # atno 5205 bound_to 1176
   -9.7828  -37.0416  -32.3718 LP  0  0  0  0  0  0  0  0  0  0  0  0  # atno 5206 bound_to 1176
   -1.2534  -33.0857  -37.0016 LP  0  0  0  0  0  0  0  0  0  0  0  0  # atno 5213 bound_to 1957
   -2.6051  -33.9696  -36.7599 LP  0  0  0  0  0  0  0  0  0  0  0  0  # atno 5214 bound_to 1957
  -14.8700  -28.9423  -37.2960 LP  0  0  0  0  0  0  0  0  0  0  0  0  # atno 5227 bound_to 1247
  -16.0623  -27.8272  -37.2546 LP  0  0  0  0  0  0  0  0  0  0  0  0  # atno 5228 bound_to 1247
  -13.2294  -24.1313  -40.4499 LP  0  0  0  0  0  0  0  0  0  0  0  0  # atno 5245 bound_to 1931
  -12.4506  -24.2195  -39.0172 LP  0  0  0  0  0  0  0  0  0  0  0  0  # atno 5246 bound_to 1931
  -11.8395  -22.1747  -30.4690 LP  0  0  0  0  0  0  0  0  0  0  0  0  # atno 5265 bound_to 1070
  -12.7523  -23.4944  -30.7718 LP  0  0  0  0  0  0  0  0  0  0  0  0  # atno 5266 bound_to 1070

$$$$
(6HGV) [A] G3Q602|ligand_6hgv|sdf|1|dock1
  -GOLD-  10202014233D 1   1.00000     0.00000

 60 61  0  0  0  0  0  0  0  0  2 V2000
   -8.3668  -28.1047  -34.3317 O   0  0  0  0  0  0  0  0  0  0  0  0
   -9.5137  -27.4216  -34.6615 C   0  0  0  0  0  0  0  0  0  0  0  0
  -10.0524  -27.7456  -35.8692 C   0  0  0  0  0  0  0  0  0  0  0  0
  -11.1580  -27.0854  -36.2765 C   0  0  0  0  0  0  0  0  0  0  0  0
  -11.6940  -26.1384  -35.4620 C   0  0  0  0  0  0  0  0  0  0  0  0
  -12.8350  -25.4723  -35.9923 N   0  0  0  0  0  0  0  0  0  0  0  0
  -13.6576  -25.6949  -37.1474 C   0  0  0  0  0  0  0  0  0  0  0  0
  -13.5924  -26.6083  -37.8451 O   0  0  0  0  0  0  0  0  0  0  0  0
  -14.7193  -24.7029  -37.2395 N   0  0  0  0  0  0  0  0  0  0  0  0
  -15.7770  -24.5884  -38.2617 C   0  0  0  0  0  0  0  0  0  0  0  0
  -15.9869  -23.2238  -38.7994 C   0  0  0  0  0  0  0  0  0  0  0  0
  -17.1509  -23.1595  -39.7964 C   0  0  0  0  0  0  0  0  0  0  0  0
  -18.4689  -23.6359  -39.2684 C   0  0  0  0  0  0  0  0  0  0  0  0
  -18.1871  -24.9479  -38.6111 C   0  0  0  0  0  0  0  0  0  0  0  0
  -17.0832  -24.8211  -37.6097 C   0  0  0  0  0  0  0  0  0  0  0  0
  -17.0417  -25.7084  -37.0498 H   0  0  0  0  0  0  0  0  0  0  0  0
  -17.3052  -24.0158  -36.9736 H   0  0  0  0  0  0  0  0  0  0  0  0
  -19.0601  -25.2771  -38.1297 H   0  0  0  0  0  0  0  0  0  0  0  0
  -17.9118  -25.6417  -39.3496 H   0  0  0  0  0  0  0  0  0  0  0  0
  -19.1461  -23.7436  -40.0635 H   0  0  0  0  0  0  0  0  0  0  0  0
  -18.8441  -22.9362  -38.5813 H   0  0  0  0  0  0  0  0  0  0  0  0
  -17.2936  -22.1659  -40.1044 H   0  0  0  0  0  0  0  0  0  0  0  0
  -16.9299  -23.7564  -40.6315 H   0  0  0  0  0  0  0  0  0  0  0  0
  -15.1179  -22.9055  -39.2954 H   0  0  0  0  0  0  0  0  0  0  0  0
  -16.2003  -22.5655  -38.0097 H   0  0  0  0  0  0  0  0  0  0  0  0
  -15.5392  -25.2001  -39.0814 H   0  0  0  0  0  0  0  0  0  0  0  0
  -14.7920  -23.9749  -36.5431 H   0  0  0  0  0  0  0  0  0  0  0  0
  -13.2123  -24.6631  -35.5200 H   0  0  0  0  0  0  0  0  0  0  0  0
  -11.1454  -25.7631  -34.2646 C   0  0  0  0  0  0  0  0  0  0  0  0
  -10.0321  -26.4333  -33.8413 C   0  0  0  0  0  0  0  0  0  0  0  0
   -9.5706  -26.2175  -32.9232 H   0  0  0  0  0  0  0  0  0  0  0  0
  -11.5806  -24.9861  -33.7083 H   0  0  0  0  0  0  0  0  0  0  0  0
  -11.6034  -27.2928  -37.2045 H   0  0  0  0  0  0  0  0  0  0  0  0
   -9.6085  -28.4926  -36.4587 H   0  0  0  0  0  0  0  0  0  0  0  0
   -8.4814  -29.3147  -34.9822 C   0  0  0  0  0  0  0  0  0  0  0  0
   -7.8558  -30.4477  -34.1934 C   0  0  0  0  0  0  0  0  0  0  0  0
   -8.5431  -30.4985  -32.9917 O   0  0  0  0  0  0  0  0  0  0  0  0
   -7.9684  -30.0749  -32.2493 H   0  0  0  0  0  0  0  0  0  0  0  0
   -6.3714  -30.2202  -33.9208 C   0  0  0  0  0  0  0  0  0  0  0  0
   -5.6622  -31.4542  -33.6264 N   0  3  0  0  0  0  0  0  0  0  0  0
   -5.0520  -32.0831  -34.7851 C   0  0  0  0  0  0  0  0  0  0  0  0
   -4.4993  -31.0685  -35.7590 C   0  0  0  0  0  0  0  0  0  0  0  0
   -5.2467  -30.7991  -36.4455 H   0  0  0  0  0  0  0  0  0  0  0  0
   -3.6848  -31.4853  -36.2740 H   0  0  0  0  0  0  0  0  0  0  0  0
   -4.1824  -30.2161  -35.2341 H   0  0  0  0  0  0  0  0  0  0  0  0
   -6.0840  -32.9168  -35.5488 C   0  0  0  0  0  0  0  0  0  0  0  0
   -6.0821  -32.6352  -36.5604 H   0  0  0  0  0  0  0  0  0  0  0  0
   -5.8402  -33.9349  -35.4685 H   0  0  0  0  0  0  0  0  0  0  0  0
   -7.0377  -32.7521  -35.1415 H   0  0  0  0  0  0  0  0  0  0  0  0
   -3.8903  -32.9278  -34.2918 C   0  0  0  0  0  0  0  0  0  0  0  0
   -2.9859  -32.4964  -34.6055 H   0  0  0  0  0  0  0  0  0  0  0  0
   -3.9707  -33.8977  -34.6858 H   0  0  0  0  0  0  0  0  0  0  0  0
   -3.9112  -32.9732  -33.2430 H   0  0  0  0  0  0  0  0  0  0  0  0
   -6.3309  -32.0880  -33.2125 H   0  0  0  0  0  0  0  0  0  0  0  0
   -4.9470  -31.2299  -32.9494 H   0  0  0  0  0  0  0  0  0  0  0  0
   -5.9524  -29.7703  -34.7720 H   0  0  0  0  0  0  0  0  0  0  0  0
   -6.2901  -29.5662  -33.1034 H   0  0  0  0  0  0  0  0  0  0  0  0
   -7.9608  -31.3638  -34.6957 H   0  0  0  0  0  0  0  0  0  0  0  0
   -9.4968  -29.5392  -35.1275 H   0  0  0  0  0  0  0  0  0  0  0  0
   -7.9987  -29.2588  -35.9130 H   0  0  0  0  0  0  0  0  0  0  0  0
  1  2  1  0  0  0  0
  1 35  1  0  0  0  0
  2  3  2  0  0  0  0
  2 30  1  0  0  0  0
  3  4  1  0  0  0  0
  3 34  1  0  0  0  0
  4  5  2  0  0  0  0
  4 33  1  0  0  0  0
  5  6  1  0  0  0  0
  5 29  1  0  0  0  0
  6  7  1  0  0  0  0
  6 28  1  0  0  0  0
  7  8  2  0  0  0  0
  7  9  1  0  0  0  0
  9 10  1  0  0  0  0
  9 27  1  0  0  0  0
 10 11  1  0  0  0  0
 10 15  1  0  0  0  0
 10 26  1  0  0  0  0
 11 12  1  0  0  0  0
 11 24  1  0  0  0  0
 11 25  1  0  0  0  0
 12 13  1  0  0  0  0
 12 22  1  0  0  0  0
 12 23  1  0  0  0  0
 13 14  1  0  0  0  0
 13 20  1  0  0  0  0
 13 21  1  0  0  0  0
 14 15  1  0  0  0  0
 14 18  1  0  0  0  0
 14 19  1  0  0  0  0
 15 16  1  0  0  0  0
 15 17  1  0  0  0  0
 29 30  2  0  0  0  0
 29 32  1  0  0  0  0
 30 31  1  0  0  0  0
 35 36  1  0  0  0  0
 35 59  1  0  0  0  0
 35 60  1  0  0  0  0
 36 37  1  0  0  0  0
 36 39  1  0  0  0  0
 36 58  1  0  0  0  0
 37 38  1  0  0  0  0
 39 40  1  0  0  0  0
 39 56  1  0  0  0  0
 39 57  1  0  0  0  0
 40 41  1  0  0  0  0
 40 54  1  0  0  0  0
 40 55  1  0  0  0  0
 41 42  1  0  0  0  0
 41 46  1  0  0  0  0
 41 50  1  0  0  0  0
 42 43  1  0  0  0  0
 42 44  1  0  0  0  0
 42 45  1  0  0  0  0
 46 47  1  0  0  0  0
 46 48  1  0  0  0  0
 46 49  1  0  0  0  0
 50 51  1  0  0  0  0
 50 52  1  0  0  0  0
 50 53  1  0  0  0  0
M  CHG  1  40   1
M  END
> <CanonicalPdbName>
6HGV-G3Q_602_A

> <Gold.Version>
5.2

> <Gold.Id.Protein>
6HGV|6HGV_protein|mol2

> <Gold.PLP.Fitness>
80.7069

> <Gold.PLP.PLP>
-76.8471

> <Gold.PLP.part.hbond>
-7.7197

> <Gold.PLP.part.metal>
0.0000

> <Gold.PLP.part.buried>
9.5575

> <Gold.PLP.part.nonpolar>
-79.0723

> <Gold.PLP.part.repulsive>
0.0504

> <Gold.PLP.ligand.clash>
12.2036

> <Gold.PLP.ligand.torsion>
1.5245

> <Gold.PLP.Chemscore.Hbond>
2.8062

> <Gold.PLP.Chemscore.CHOScore>
0.0000

> <Gold.PLP.Chemscore.Metal>
0.0000

> <Gold.Chemscore.Hbonds>
donor molecule, donor type, donor heavy atom, donor atom, acceptor molecule, acceptor atom, score
      L1  H     6    28       P1   853  0.94
      L1  H     9    27       P1   853  0.95
      P1  H  1256  3855       L1     8  0.15
      P1  H  1247  3847       L1     8  0.76
      P1  H  1931  4507       L1     8  0.01

> <Gold.PLP.Chemscore.Internal.Correction>
8.2151

> <Gold.Protein.RotatedTorsions>
[ 3525  925  924  922 ] final  170.30 input   59.99 | X-H torsion
[ 3781 1176 1175 1172 ] final  -55.28 input   60.00 | X-H torsion
[ 4531 1957 1955 1953 ] final  -31.71 input   60.00 | X-H torsion
[ 3847 1247 1246 1244 ] final  159.09 input   60.00 | X-H torsion
[ 4507 1931 1930 1928 ] final  -56.13 input   60.00 | X-H torsion
[ 3677 1070 1069 1066 ] final -156.13 input   60.00 | X-H torsion

> <Gold.Protein.ActiveResidues>
 GLY266  PHE267  PRO268  GLU269  MET310  HIS334  ASP335  TRP336  GLY337  GLY338 
 MET339  LEU340  TRP342  TYR343  LEU358  ASN359  THR360  PRO361  ILE363  ALA365 
 MET369  SER370  PRO371  LEU372  GLU373  SER374  ILE375  LYS376  ALA377  ASN378 
 VAL380  PHE381  ASP382  TYR383  GLN384  PHE387  GLN388  LEU397  SER407  LEU408 
 PHE409  ARG410  LEU417  MET419  LEU428  PHE429  PHE459  TRP465  TYR466  ASN468 
 MET469  GLU470  ASN472  TRP473  ALA476  ASP496  PHE497  VAL498  LEU499  MET503 
 HIS524  TRP525 

> <Gold.Protein.RotatedAtoms>
   -2.1524  -30.2616  -29.5369 H   0  0  0  0  0  0  0  0  0  0  0  0  # atno 3525 bound_to 925 
  -11.1385  -23.1099  -31.3432 H   0  0  0  0  0  0  0  0  0  0  0  0  # atno 3677 bound_to 1070
  -10.2947  -36.7198  -34.1508 H   0  0  0  0  0  0  0  0  0  0  0  0  # atno 3781 bound_to 1176
  -14.4502  -27.7021  -37.9379 H   0  0  0  0  0  0  0  0  0  0  0  0  # atno 3847 bound_to 1247
  -13.6713  -25.2544  -39.8626 H   0  0  0  0  0  0  0  0  0  0  0  0  # atno 4507 bound_to 1931
   -2.4290  -32.2312  -36.7657 H   0  0  0  0  0  0  0  0  0  0  0  0  # atno 4531 bound_to 1957
   -2.9515  -29.7934  -30.8749 LP  0  0  0  0  0  0  0  0  0  0  0  0  # atno 5201 bound_to 925 
   -3.6445  -29.6256  -29.4059 LP  0  0  0  0  0  0  0  0  0  0  0  0  # atno 5202 bound_to 925 
   -9.2524  -36.4809  -32.9242 LP  0  0  0  0  0  0  0  0  0  0  0  0  # atno 5205 bound_to 1176
  -10.5618  -37.4335  -32.7130 LP  0  0  0  0  0  0  0  0  0  0  0  0  # atno 5206 bound_to 1176
   -1.2809  -33.3603  -37.0011 LP  0  0  0  0  0  0  0  0  0  0  0  0  # atno 5213 bound_to 1957
   -2.8248  -33.8089  -36.7153 LP  0  0  0  0  0  0  0  0  0  0  0  0  # atno 5214 bound_to 1957
  -15.1440  -28.9640  -37.1802 LP  0  0  0  0  0  0  0  0  0  0  0  0  # atno 5227 bound_to 1247
  -15.9755  -27.5737  -37.3857 LP  0  0  0  0  0  0  0  0  0  0  0  0  # atno 5228 bound_to 1247
  -12.9124  -23.8629  -40.2313 LP  0  0  0  0  0  0  0  0  0  0  0  0  # atno 5245 bound_to 1931
  -12.6067  -24.6120  -38.8128 LP  0  0  0  0  0  0  0  0  0  0  0  0  # atno 5246 bound_to 1931
  -12.1117  -22.2395  -30.3720 LP  0  0  0  0  0  0  0  0  0  0  0  0  # atno 5265 bound_to 1070
  -12.6096  -23.6835  -30.9496 LP  0  0  0  0  0  0  0  0  0  0  0  0  # atno 5266 bound_to 1070

$$$$
(6HGV) [A] G3Q602|ligand_6hgv|sdf|1|dock5
  -GOLD-  10202014243D 1   1.00000     0.00000

 60 61  0  0  0  0  0  0  0  0  2 V2000
   -8.0862  -27.9626  -34.2402 O   0  0  0  0  0  0  0  0  0  0  0  0
   -9.2289  -27.2864  -34.5977 C   0  0  0  0  0  0  0  0  0  0  0  0
   -9.9444  -27.8540  -35.6073 C   0  0  0  0  0  0  0  0  0  0  0  0
  -11.0581  -27.2229  -36.0381 C   0  0  0  0  0  0  0  0  0  0  0  0
  -11.4257  -26.0592  -35.4396 C   0  0  0  0  0  0  0  0  0  0  0  0
  -12.5909  -25.4501  -35.9856 N   0  0  0  0  0  0  0  0  0  0  0  0
  -13.4858  -25.8115  -37.0482 C   0  0  0  0  0  0  0  0  0  0  0  0
  -13.4731  -26.8115  -37.6182 O   0  0  0  0  0  0  0  0  0  0  0  0
  -14.5414  -24.8218  -37.2097 N   0  0  0  0  0  0  0  0  0  0  0  0
  -15.6595  -24.8270  -38.1724 C   0  0  0  0  0  0  0  0  0  0  0  0
  -15.9431  -23.5219  -38.8139 C   0  0  0  0  0  0  0  0  0  0  0  0
  -17.1643  -23.5776  -39.7407 C   0  0  0  0  0  0  0  0  0  0  0  0
  -18.4338  -24.0395  -39.0945 C   0  0  0  0  0  0  0  0  0  0  0  0
  -18.0732  -25.2796  -38.3429 C   0  0  0  0  0  0  0  0  0  0  0  0
  -16.9179  -25.0349  -37.4249 C   0  0  0  0  0  0  0  0  0  0  0  0
  -16.8161  -25.8672  -36.7930 H   0  0  0  0  0  0  0  0  0  0  0  0
  -17.1281  -24.1821  -36.8496 H   0  0  0  0  0  0  0  0  0  0  0  0
  -18.9062  -25.5875  -37.7827 H   0  0  0  0  0  0  0  0  0  0  0  0
  -17.8192  -26.0291  -39.0331 H   0  0  0  0  0  0  0  0  0  0  0  0
  -19.1520  -24.2356  -39.8348 H   0  0  0  0  0  0  0  0  0  0  0  0
  -18.7907  -23.2914  -38.4499 H   0  0  0  0  0  0  0  0  0  0  0  0
  -17.3558  -22.6196  -40.1254 H   0  0  0  0  0  0  0  0  0  0  0  0
  -16.9731  -24.2407  -40.5321 H   0  0  0  0  0  0  0  0  0  0  0  0
  -15.1147  -23.2264  -39.3874 H   0  0  0  0  0  0  0  0  0  0  0  0
  -16.1313  -22.8015  -38.0735 H   0  0  0  0  0  0  0  0  0  0  0  0
  -15.4502  -25.5030  -38.9482 H   0  0  0  0  0  0  0  0  0  0  0  0
  -14.5636  -24.0054  -36.6155 H   0  0  0  0  0  0  0  0  0  0  0  0
  -12.9302  -24.5779  -35.6056 H   0  0  0  0  0  0  0  0  0  0  0  0
  -10.6990  -25.4455  -34.4543 C   0  0  0  0  0  0  0  0  0  0  0  0
   -9.5761  -26.0830  -34.0065 C   0  0  0  0  0  0  0  0  0  0  0  0
   -8.9824  -25.6854  -33.2371 H   0  0  0  0  0  0  0  0  0  0  0  0
  -11.0114  -24.5192  -34.0711 H   0  0  0  0  0  0  0  0  0  0  0  0
  -11.6367  -27.6163  -36.8211 H   0  0  0  0  0  0  0  0  0  0  0  0
   -9.6262  -28.7605  -36.0312 H   0  0  0  0  0  0  0  0  0  0  0  0
   -8.3845  -29.2912  -34.4551 C   0  0  0  0  0  0  0  0  0  0  0  0
   -7.1639  -30.1791  -34.3177 C   0  0  0  0  0  0  0  0  0  0  0  0
   -6.1113  -29.4654  -34.8670 O   0  0  0  0  0  0  0  0  0  0  0  0
   -5.4703  -29.1678  -34.1178 H   0  0  0  0  0  0  0  0  0  0  0  0
   -7.3195  -31.5053  -35.0570 C   0  0  0  0  0  0  0  0  0  0  0  0
   -7.0837  -32.6542  -34.1986 N   0  3  0  0  0  0  0  0  0  0  0  0
   -6.3092  -33.7147  -34.8200 C   0  0  0  0  0  0  0  0  0  0  0  0
   -6.3577  -34.9975  -34.0229 C   0  0  0  0  0  0  0  0  0  0  0  0
   -5.5789  -35.0016  -33.3187 H   0  0  0  0  0  0  0  0  0  0  0  0
   -6.2482  -35.8164  -34.6707 H   0  0  0  0  0  0  0  0  0  0  0  0
   -7.2798  -35.0657  -33.5254 H   0  0  0  0  0  0  0  0  0  0  0  0
   -4.8362  -33.3119  -34.9259 C   0  0  0  0  0  0  0  0  0  0  0  0
   -4.2368  -34.0623  -34.5014 H   0  0  0  0  0  0  0  0  0  0  0  0
   -4.5789  -33.1884  -35.9364 H   0  0  0  0  0  0  0  0  0  0  0  0
   -4.6824  -32.4089  -34.4126 H   0  0  0  0  0  0  0  0  0  0  0  0
   -6.9220  -33.9952  -36.1809 C   0  0  0  0  0  0  0  0  0  0  0  0
   -7.3779  -34.9410  -36.1714 H   0  0  0  0  0  0  0  0  0  0  0  0
   -6.1704  -33.9763  -36.9138 H   0  0  0  0  0  0  0  0  0  0  0  0
   -7.6415  -33.2621  -36.3986 H   0  0  0  0  0  0  0  0  0  0  0  0
   -7.9887  -33.0121  -33.9285 H   0  0  0  0  0  0  0  0  0  0  0  0
   -6.5970  -32.3170  -33.3804 H   0  0  0  0  0  0  0  0  0  0  0  0
   -8.2965  -31.5487  -35.4394 H   0  0  0  0  0  0  0  0  0  0  0  0
   -6.6323  -31.5146  -35.8508 H   0  0  0  0  0  0  0  0  0  0  0  0
   -6.9571  -30.3876  -33.3096 H   0  0  0  0  0  0  0  0  0  0  0  0
   -9.0993  -29.6072  -33.7541 H   0  0  0  0  0  0  0  0  0  0  0  0
   -8.7686  -29.4112  -35.4250 H   0  0  0  0  0  0  0  0  0  0  0  0
  1  2  1  0  0  0  0
  1 35  1  0  0  0  0
  2  3  2  0  0  0  0
  2 30  1  0  0  0  0
  3  4  1  0  0  0  0
  3 34  1  0  0  0  0
  4  5  2  0  0  0  0
  4 33  1  0  0  0  0
  5  6  1  0  0  0  0
  5 29  1  0  0  0  0
  6  7  1  0  0  0  0
  6 28  1  0  0  0  0
  7  8  2  0  0  0  0
  7  9  1  0  0  0  0
  9 10  1  0  0  0  0
  9 27  1  0  0  0  0
 10 11  1  0  0  0  0
 10 15  1  0  0  0  0
 10 26  1  0  0  0  0
 11 12  1  0  0  0  0
 11 24  1  0  0  0  0
 11 25  1  0  0  0  0
 12 13  1  0  0  0  0
 12 22  1  0  0  0  0
 12 23  1  0  0  0  0
 13 14  1  0  0  0  0
 13 20  1  0  0  0  0
 13 21  1  0  0  0  0
 14 15  1  0  0  0  0
 14 18  1  0  0  0  0
 14 19  1  0  0  0  0
 15 16  1  0  0  0  0
 15 17  1  0  0  0  0
 29 30  2  0  0  0  0
 29 32  1  0  0  0  0
 30 31  1  0  0  0  0
 35 36  1  0  0  0  0
 35 59  1  0  0  0  0
 35 60  1  0  0  0  0
 36 37  1  0  0  0  0
 36 39  1  0  0  0  0
 36 58  1  0  0  0  0
 37 38  1  0  0  0  0
 39 40  1  0  0  0  0
 39 56  1  0  0  0  0
 39 57  1  0  0  0  0
 40 41  1  0  0  0  0
 40 54  1  0  0  0  0
 40 55  1  0  0  0  0
 41 42  1  0  0  0  0
 41 46  1  0  0  0  0
 41 50  1  0  0  0  0
 42 43  1  0  0  0  0
 42 44  1  0  0  0  0
 42 45  1  0  0  0  0
 46 47  1  0  0  0  0
 46 48  1  0  0  0  0
 46 49  1  0  0  0  0
 50 51  1  0  0  0  0
 50 52  1  0  0  0  0
 50 53  1  0  0  0  0
M  CHG  1  40   1
M  END
> <CanonicalPdbName>
6HGV-G3Q_602_A

> <Gold.Version>
5.2

> <Gold.Id.Protein>
6HGV|6HGV_protein|mol2

> <Gold.PLP.Fitness>
80.0497

> <Gold.PLP.PLP>
-76.5086

> <Gold.PLP.part.hbond>
-8.5060

> <Gold.PLP.part.metal>
0.0000

> <Gold.PLP.part.buried>
6.2791

> <Gold.PLP.part.nonpolar>
-76.4114

> <Gold.PLP.part.repulsive>
0.0579

> <Gold.PLP.ligand.clash>
11.4801

> <Gold.PLP.ligand.torsion>
1.9273

> <Gold.PLP.Chemscore.Hbond>
2.6738

> <Gold.PLP.Chemscore.CHOScore>
0.0000

> <Gold.PLP.Chemscore.Metal>
0.0000

> <Gold.Chemscore.Hbonds>
donor molecule, donor type, donor heavy atom, donor atom, acceptor molecule, acceptor atom, score
      L1  H     6    28       P1   853  0.65
      L1  H     9    27       P1   853  0.97
      P1  H  1256  3855       L1     8  0.31
      P1  H  1247  3847       L1     8  0.74

> <Gold.PLP.Chemscore.Internal.Correction>
8.0181

> <Gold.Protein.RotatedTorsions>
[ 3525  925  924  922 ] final   33.24 input   59.99 | X-H torsion
[ 3781 1176 1175 1172 ] final  155.29 input   60.00 | X-H torsion
[ 4531 1957 1955 1953 ] final  169.33 input   60.00 | X-H torsion
[ 3847 1247 1246 1244 ] final  155.69 input   60.00 | X-H torsion
[ 4507 1931 1930 1928 ] final  -44.26 input   60.00 | X-H torsion
[ 3677 1070 1069 1066 ] final -139.30 input   60.00 | X-H torsion

> <Gold.Protein.ActiveResidues>
 GLY266  PHE267  PRO268  GLU269  MET310  HIS334  ASP335  TRP336  GLY337  GLY338 
 MET339  LEU340  TRP342  TYR343  LEU358  ASN359  THR360  PRO361  ILE363  ALA365 
 MET369  SER370  PRO371  LEU372  GLU373  SER374  ILE375  LYS376  ALA377  ASN378 
 VAL380  PHE381  ASP382  TYR383  GLN384  PHE387  GLN388  LEU397  SER407  LEU408 
 PHE409  ARG410  LEU417  MET419  LEU428  PHE429  PHE459  TRP465  TYR466  ASN468 
 MET469  GLU470  ASN472  TRP473  ALA476  ASP496  PHE497  VAL498  LEU499  MET503 
 HIS524  TRP525 

> <Gold.Protein.RotatedAtoms>
   -3.2003  -29.6887  -30.8057 H   0  0  0  0  0  0  0  0  0  0  0  0  # atno 3525 bound_to 925 
  -11.2558  -23.3453  -31.4196 H   0  0  0  0  0  0  0  0  0  0  0  0  # atno 3677 bound_to 1070
   -9.4316  -36.7382  -32.5644 H   0  0  0  0  0  0  0  0  0  0  0  0  # atno 3781 bound_to 1176
  -14.4232  -27.7501  -37.9302 H   0  0  0  0  0  0  0  0  0  0  0  0  # atno 3847 bound_to 1247
  -13.6223  -25.3283  -39.6904 H   0  0  0  0  0  0  0  0  0  0  0  0  # atno 4507 bound_to 1931
   -1.6282  -33.8792  -36.9465 H   0  0  0  0  0  0  0  0  0  0  0  0  # atno 4531 bound_to 1957
   -3.4764  -29.7175  -29.2023 LP  0  0  0  0  0  0  0  0  0  0  0  0  # atno 5201 bound_to 925 
   -2.0643  -30.2784  -29.8008 LP  0  0  0  0  0  0  0  0  0  0  0  0  # atno 5202 bound_to 925 
  -10.7907  -37.4287  -33.1337 LP  0  0  0  0  0  0  0  0  0  0  0  0  # atno 5205 bound_to 1176
   -9.8928  -36.4672  -34.1012 LP  0  0  0  0  0  0  0  0  0  0  0  0  # atno 5206 bound_to 1176
   -3.0984  -33.2459  -36.6536 LP  0  0  0  0  0  0  0  0  0  0  0  0  # atno 5213 bound_to 1957
   -1.8137  -32.2638  -36.8808 LP  0  0  0  0  0  0  0  0  0  0  0  0  # atno 5214 bound_to 1957
  -15.1966  -28.9582  -37.1618 LP  0  0  0  0  0  0  0  0  0  0  0  0  # atno 5227 bound_to 1247
  -15.9501  -27.5312  -37.4119 LP  0  0  0  0  0  0  0  0  0  0  0  0  # atno 5228 bound_to 1247
  -13.0428  -23.9549  -40.3433 LP  0  0  0  0  0  0  0  0  0  0  0  0  # atno 5245 bound_to 1931
  -12.5257  -24.4456  -38.8741 LP  0  0  0  0  0  0  0  0  0  0  0  0  # atno 5246 bound_to 1931
  -11.8583  -22.1766  -30.4608 LP  0  0  0  0  0  0  0  0  0  0  0  0  # atno 5265 bound_to 1070
  -12.7448  -23.5093  -30.7839 LP  0  0  0  0  0  0  0  0  0  0  0  0  # atno 5266 bound_to 1070

$$$$
(6HGV) [A] G3Q602|ligand_6hgv|sdf|1|dock10
  -GOLD-  10202014243D 1   1.00000     0.00000

 60 61  0  0  0  0  0  0  0  0  2 V2000
   -9.9961  -28.2630  -33.8615 O   0  0  0  0  0  0  0  0  0  0  0  0
  -10.8812  -27.5739  -34.6567 C   0  0  0  0  0  0  0  0  0  0  0  0
  -10.4278  -26.3785  -35.1248 C   0  0  0  0  0  0  0  0  0  0  0  0
  -11.2590  -25.6282  -35.8801 C   0  0  0  0  0  0  0  0  0  0  0  0
  -12.5038  -26.1010  -36.1529 C   0  0  0  0  0  0  0  0  0  0  0  0
  -13.3186  -25.2246  -36.9244 N   0  0  0  0  0  0  0  0  0  0  0  0
  -14.7348  -25.1280  -37.1373 C   0  0  0  0  0  0  0  0  0  0  0  0
  -15.5357  -25.7334  -36.5739 O   0  0  0  0  0  0  0  0  0  0  0  0
  -15.0601  -24.0330  -38.0401 N   0  0  0  0  0  0  0  0  0  0  0  0
  -16.3909  -23.5930  -38.5008 C   0  0  0  0  0  0  0  0  0  0  0  0
  -17.4883  -24.5614  -38.2698 C   0  0  0  0  0  0  0  0  0  0  0  0
  -18.8268  -24.0778  -38.8422 C   0  0  0  0  0  0  0  0  0  0  0  0
  -18.8161  -23.7603  -40.3056 C   0  0  0  0  0  0  0  0  0  0  0  0
  -17.6150  -22.8977  -40.5202 C   0  0  0  0  0  0  0  0  0  0  0  0
  -16.3821  -23.5488  -39.9784 C   0  0  0  0  0  0  0  0  0  0  0  0
  -15.5482  -23.0021  -40.3072 H   0  0  0  0  0  0  0  0  0  0  0  0
  -16.3313  -24.5267  -40.3575 H   0  0  0  0  0  0  0  0  0  0  0  0
  -17.4994  -22.7325  -41.5507 H   0  0  0  0  0  0  0  0  0  0  0  0
  -17.7688  -21.9800  -40.0337 H   0  0  0  0  0  0  0  0  0  0  0  0
  -19.7006  -23.2552  -40.5606 H   0  0  0  0  0  0  0  0  0  0  0  0
  -18.7507  -24.6517  -40.8567 H   0  0  0  0  0  0  0  0  0  0  0  0
  -19.5560  -24.8203  -38.7025 H   0  0  0  0  0  0  0  0  0  0  0  0
  -19.1221  -23.1998  -38.3478 H   0  0  0  0  0  0  0  0  0  0  0  0
  -17.6123  -24.7102  -37.2378 H   0  0  0  0  0  0  0  0  0  0  0  0
  -17.2510  -25.4753  -38.7291 H   0  0  0  0  0  0  0  0  0  0  0  0
  -16.6602  -22.7101  -38.0004 H   0  0  0  0  0  0  0  0  0  0  0  0
  -14.3222  -23.4665  -38.4334 H   0  0  0  0  0  0  0  0  0  0  0  0
  -12.8933  -24.4866  -37.4672 H   0  0  0  0  0  0  0  0  0  0  0  0
  -12.9985  -27.2777  -35.6568 C   0  0  0  0  0  0  0  0  0  0  0  0
  -12.1601  -28.0469  -34.8997 C   0  0  0  0  0  0  0  0  0  0  0  0
  -12.4611  -28.9725  -34.5058 H   0  0  0  0  0  0  0  0  0  0  0  0
  -13.9888  -27.5593  -35.8629 H   0  0  0  0  0  0  0  0  0  0  0  0
  -10.9581  -24.6946  -36.2548 H   0  0  0  0  0  0  0  0  0  0  0  0
   -9.4536  -26.0605  -34.8963 H   0  0  0  0  0  0  0  0  0  0  0  0
  -10.3448  -29.5877  -34.0171 C   0  0  0  0  0  0  0  0  0  0  0  0
   -9.4294  -30.3081  -34.9867 C   0  0  0  0  0  0  0  0  0  0  0  0
  -10.2568  -30.8624  -35.9496 O   0  0  0  0  0  0  0  0  0  0  0  0
   -9.6869  -31.3712  -36.6404 H   0  0  0  0  0  0  0  0  0  0  0  0
   -8.6198  -31.4138  -34.3147 C   0  0  0  0  0  0  0  0  0  0  0  0
   -7.2988  -31.5728  -34.8996 N   0  3  0  0  0  0  0  0  0  0  0  0
   -6.8815  -32.9546  -35.0648 C   0  0  0  0  0  0  0  0  0  0  0  0
   -5.4411  -33.0655  -35.5078 C   0  0  0  0  0  0  0  0  0  0  0  0
   -5.3952  -33.0492  -36.5566 H   0  0  0  0  0  0  0  0  0  0  0  0
   -5.0345  -33.9664  -35.1536 H   0  0  0  0  0  0  0  0  0  0  0  0
   -4.8928  -32.2580  -35.1208 H   0  0  0  0  0  0  0  0  0  0  0  0
   -7.7305  -33.6472  -36.1339 C   0  0  0  0  0  0  0  0  0  0  0  0
   -7.1009  -34.0928  -36.8464 H   0  0  0  0  0  0  0  0  0  0  0  0
   -8.3267  -34.3849  -35.6836 H   0  0  0  0  0  0  0  0  0  0  0  0
   -8.3461  -32.9390  -36.6050 H   0  0  0  0  0  0  0  0  0  0  0  0
   -7.0011  -33.6362  -33.7130 C   0  0  0  0  0  0  0  0  0  0  0  0
   -6.0423  -33.8567  -33.3461 H   0  0  0  0  0  0  0  0  0  0  0  0
   -7.5492  -34.5257  -33.8169 H   0  0  0  0  0  0  0  0  0  0  0  0
   -7.4945  -32.9975  -33.0414 H   0  0  0  0  0  0  0  0  0  0  0  0
   -6.6475  -31.0947  -34.2935 H   0  0  0  0  0  0  0  0  0  0  0  0
   -7.3174  -31.1167  -35.8005 H   0  0  0  0  0  0  0  0  0  0  0  0
   -8.5252  -31.1714  -33.2973 H   0  0  0  0  0  0  0  0  0  0  0  0
   -9.1562  -32.3111  -34.4123 H   0  0  0  0  0  0  0  0  0  0  0  0
   -8.7588  -29.6413  -35.4432 H   0  0  0  0  0  0  0  0  0  0  0  0
  -10.2876  -30.0759  -33.0893 H   0  0  0  0  0  0  0  0  0  0  0  0
  -11.3260  -29.6504  -34.3858 H   0  0  0  0  0  0  0  0  0  0  0  0
  1  2  1  0  0  0  0
  1 35  1  0  0  0  0
  2  3  2  0  0  0  0
  2 30  1  0  0  0  0
  3  4  1  0  0  0  0
  3 34  1  0  0  0  0
  4  5  2  0  0  0  0
  4 33  1  0  0  0  0
  5  6  1  0  0  0  0
  5 29  1  0  0  0  0
  6  7  1  0  0  0  0
  6 28  1  0  0  0  0
  7  8  2  0  0  0  0
  7  9  1  0  0  0  0
  9 10  1  0  0  0  0
  9 27  1  0  0  0  0
 10 11  1  0  0  0  0
 10 15  1  0  0  0  0
 10 26  1  0  0  0  0
 11 12  1  0  0  0  0
 11 24  1  0  0  0  0
 11 25  1  0  0  0  0
 12 13  1  0  0  0  0
 12 22  1  0  0  0  0
 12 23  1  0  0  0  0
 13 14  1  0  0  0  0
 13 20  1  0  0  0  0
 13 21  1  0  0  0  0
 14 15  1  0  0  0  0
 14 18  1  0  0  0  0
 14 19  1  0  0  0  0
 15 16  1  0  0  0  0
 15 17  1  0  0  0  0
 29 30  2  0  0  0  0
 29 32  1  0  0  0  0
 30 31  1  0  0  0  0
 35 36  1  0  0  0  0
 35 59  1  0  0  0  0
 35 60  1  0  0  0  0
 36 37  1  0  0  0  0
 36 39  1  0  0  0  0
 36 58  1  0  0  0  0
 37 38  1  0  0  0  0
 39 40  1  0  0  0  0
 39 56  1  0  0  0  0
 39 57  1  0  0  0  0
 40 41  1  0  0  0  0
 40 54  1  0  0  0  0
 40 55  1  0  0  0  0
 41 42  1  0  0  0  0
 41 46  1  0  0  0  0
 41 50  1  0  0  0  0
 42 43  1  0  0  0  0
 42 44  1  0  0  0  0
 42 45  1  0  0  0  0
 46 47  1  0  0  0  0
 46 48  1  0  0  0  0
 46 49  1  0  0  0  0
 50 51  1  0  0  0  0
 50 52  1  0  0  0  0
 50 53  1  0  0  0  0
M  CHG  1  40   1
M  END
> <CanonicalPdbName>
6HGV-G3Q_602_A

> <Gold.Version>
5.2

> <Gold.Id.Protein>
6HGV|6HGV_protein|mol2

> <Gold.PLP.Fitness>
79.4191

> <Gold.PLP.PLP>
-74.0071

> <Gold.PLP.part.hbond>
-13.8855

> <Gold.PLP.part.metal>
0.0000

> <Gold.PLP.part.buried>
3.5319

> <Gold.PLP.part.nonpolar>
-64.7182

> <Gold.PLP.part.repulsive>
0.0886

> <Gold.PLP.ligand.clash>
7.3662

> <Gold.PLP.ligand.torsion>
2.3756

> <Gold.PLP.Chemscore.Hbond>
2.1364

> <Gold.PLP.Chemscore.CHOScore>
0.0000

> <Gold.PLP.Chemscore.Metal>
0.0000

> <Gold.Chemscore.Hbonds>
donor molecule, donor type, donor heavy atom, donor atom, acceptor molecule, acceptor atom, score
      L1  H     6    28       P1  1931  0.44
      L1  H    37    38       P1  1255  0.33
      P1  H  1256  3854       L1    37  0.73
      P1  H  1247  3847       L1     8  0.64

> <Gold.PLP.Chemscore.Internal.Correction>
8.0181

> <Gold.Protein.RotatedTorsions>
[ 3525  925  924  922 ] final  114.68 input   59.99 | X-H torsion
[ 3781 1176 1175 1172 ] final -100.33 input   60.00 | X-H torsion
[ 4531 1957 1955 1953 ] final  -94.10 input   60.00 | X-H torsion
[ 3847 1247 1246 1244 ] final  -84.21 input   60.00 | X-H torsion
[ 4507 1931 1930 1928 ] final -122.24 input   60.00 | X-H torsion
[ 3677 1070 1069 1066 ] final  165.06 input   60.00 | X-H torsion

> <Gold.Protein.ActiveResidues>
 GLY266  PHE267  PRO268  GLU269  MET310  HIS334  ASP335  TRP336  GLY337  GLY338 
 MET339  LEU340  TRP342  TYR343  LEU358  ASN359  THR360  PRO361  ILE363  ALA365 
 MET369  SER370  PRO371  LEU372  GLU373  SER374  ILE375  LYS376  ALA377  ASN378 
 VAL380  PHE381  ASP382  TYR383  GLN384  PHE387  GLN388  LEU397  SER407  LEU408 
 PHE409  ARG410  LEU417  MET419  LEU428  PHE429  PHE459  TRP465  TYR466  ASN468 
 MET469  GLU470  ASN472  TRP473  ALA476  ASP496  PHE497  VAL498  LEU499  MET503 
 HIS524  TRP525 

> <Gold.Protein.RotatedAtoms>
   -2.1559  -30.1805  -30.4066 H   0  0  0  0  0  0  0  0  0  0  0  0  # atno 3525 bound_to 925 
  -11.1389  -22.5693  -31.0352 H   0  0  0  0  0  0  0  0  0  0  0  0  # atno 3677 bound_to 1070
   -9.6875  -36.3800  -33.9766 H   0  0  0  0  0  0  0  0  0  0  0  0  # atno 3781 bound_to 1176
  -15.9463  -27.5370  -37.4138 H   0  0  0  0  0  0  0  0  0  0  0  0  # atno 3847 bound_to 1247
  -13.4701  -24.4598  -40.4717 H   0  0  0  0  0  0  0  0  0  0  0  0  # atno 4507 bound_to 1931
   -1.5104  -32.4863  -36.9448 H   0  0  0  0  0  0  0  0  0  0  0  0  # atno 4531 bound_to 1957
   -3.6485  -29.5324  -30.4061 LP  0  0  0  0  0  0  0  0  0  0  0  0  # atno 5201 bound_to 925 
   -2.9440  -29.9682  -28.9988 LP  0  0  0  0  0  0  0  0  0  0  0  0  # atno 5202 bound_to 925 
   -9.5907  -36.8900  -32.4343 LP  0  0  0  0  0  0  0  0  0  0  0  0  # atno 5205 bound_to 1176
  -10.8350  -37.3666  -33.3784 LP  0  0  0  0  0  0  0  0  0  0  0  0  # atno 5206 bound_to 1176
   -1.9646  -34.0478  -36.8830 LP  0  0  0  0  0  0  0  0  0  0  0  0  # atno 5213 bound_to 1957
   -3.0661  -32.8644  -36.6531 LP  0  0  0  0  0  0  0  0  0  0  0  0  # atno 5214 bound_to 1957
  -14.4177  -27.7456  -37.9313 LP  0  0  0  0  0  0  0  0  0  0  0  0  # atno 5227 bound_to 1247
  -15.1950  -28.9584  -37.1623 LP  0  0  0  0  0  0  0  0  0  0  0  0  # atno 5228 bound_to 1247
  -12.4383  -23.9473  -39.3224 LP  0  0  0  0  0  0  0  0  0  0  0  0  # atno 5245 bound_to 1931
  -13.2835  -25.3280  -39.1081 LP  0  0  0  0  0  0  0  0  0  0  0  0  # atno 5246 bound_to 1931
  -12.6105  -22.6175  -30.3421 LP  0  0  0  0  0  0  0  0  0  0  0  0  # atno 5265 bound_to 1070
  -12.1104  -23.8498  -31.2898 LP  0  0  0  0  0  0  0  0  0  0  0  0  # atno 5266 bound_to 1070

$$$$
(6HGV) [A] G3Q602|ligand_6hgv|sdf|1|dock7
  -GOLD-  10202014243D 1   1.00000     0.00000

 60 61  0  0  0  0  0  0  0  0  2 V2000
   -8.2057  -27.9953  -34.0858 O   0  0  0  0  0  0  0  0  0  0  0  0
   -9.3385  -27.3084  -34.4542 C   0  0  0  0  0  0  0  0  0  0  0  0
  -10.2148  -28.0098  -35.2248 C   0  0  0  0  0  0  0  0  0  0  0  0
  -11.3314  -27.3851  -35.6573 C   0  0  0  0  0  0  0  0  0  0  0  0
  -11.5412  -26.0917  -35.2959 C   0  0  0  0  0  0  0  0  0  0  0  0
  -12.7252  -25.5081  -35.8293 N   0  0  0  0  0  0  0  0  0  0  0  0
  -13.5612  -25.8266  -36.9519 C   0  0  0  0  0  0  0  0  0  0  0  0
  -13.4666  -26.7688  -37.6065 O   0  0  0  0  0  0  0  0  0  0  0  0
  -14.6724  -24.8925  -37.0653 N   0  0  0  0  0  0  0  0  0  0  0  0
  -15.7569  -24.8795  -38.0655 C   0  0  0  0  0  0  0  0  0  0  0  0
  -15.9563  -23.5859  -38.7600 C   0  0  0  0  0  0  0  0  0  0  0  0
  -17.1473  -23.6172  -39.7263 C   0  0  0  0  0  0  0  0  0  0  0  0
  -18.4582  -23.9963  -39.1094 C   0  0  0  0  0  0  0  0  0  0  0  0
  -18.1825  -25.2247  -38.3046 C   0  0  0  0  0  0  0  0  0  0  0  0
  -17.0478  -25.0020  -37.3557 C   0  0  0  0  0  0  0  0  0  0  0  0
  -17.0070  -25.8154  -36.6930 H   0  0  0  0  0  0  0  0  0  0  0  0
  -17.2360  -24.1206  -36.8170 H   0  0  0  0  0  0  0  0  0  0  0  0
  -19.0473  -25.4735  -37.7637 H   0  0  0  0  0  0  0  0  0  0  0  0
  -17.9419  -26.0091  -38.9599 H   0  0  0  0  0  0  0  0  0  0  0  0
  -19.1601  -24.1847  -39.8672 H   0  0  0  0  0  0  0  0  0  0  0  0
  -18.8001  -23.2102  -38.5032 H   0  0  0  0  0  0  0  0  0  0  0  0
  -17.2800  -22.6654  -40.1493 H   0  0  0  0  0  0  0  0  0  0  0  0
  -16.9619  -24.3159  -40.4878 H   0  0  0  0  0  0  0  0  0  0  0  0
  -15.0962  -23.3497  -39.3139 H   0  0  0  0  0  0  0  0  0  0  0  0
  -16.1343  -22.8320  -38.0512 H   0  0  0  0  0  0  0  0  0  0  0  0
  -15.5545  -25.5913  -38.8104 H   0  0  0  0  0  0  0  0  0  0  0  0
  -14.7654  -24.1357  -36.4030 H   0  0  0  0  0  0  0  0  0  0  0  0
  -13.1314  -24.6959  -35.3873 H   0  0  0  0  0  0  0  0  0  0  0  0
  -10.6541  -25.3517  -34.5604 C   0  0  0  0  0  0  0  0  0  0  0  0
   -9.5266  -25.9799  -34.1110 C   0  0  0  0  0  0  0  0  0  0  0  0
   -8.8132  -25.4839  -33.5215 H   0  0  0  0  0  0  0  0  0  0  0  0
  -10.8528  -24.3402  -34.3608 H   0  0  0  0  0  0  0  0  0  0  0  0
  -12.0313  -27.8813  -36.2627 H   0  0  0  0  0  0  0  0  0  0  0  0
  -10.0143  -29.0112  -35.4689 H   0  0  0  0  0  0  0  0  0  0  0  0
   -8.0278  -28.9344  -35.0792 C   0  0  0  0  0  0  0  0  0  0  0  0
   -7.4582  -30.2320  -34.5417 C   0  0  0  0  0  0  0  0  0  0  0  0
   -6.0962  -30.1803  -34.7894 O   0  0  0  0  0  0  0  0  0  0  0  0
   -5.6185  -29.7391  -33.9907 H   0  0  0  0  0  0  0  0  0  0  0  0
   -8.0531  -31.4596  -35.2264 C   0  0  0  0  0  0  0  0  0  0  0  0
   -7.8423  -32.6801  -34.4660 N   0  3  0  0  0  0  0  0  0  0  0  0
   -7.0473  -33.6825  -35.1543 C   0  0  0  0  0  0  0  0  0  0  0  0
   -6.8571  -34.9290  -34.3217 C   0  0  0  0  0  0  0  0  0  0  0  0
   -5.9978  -34.8252  -33.7273 H   0  0  0  0  0  0  0  0  0  0  0  0
   -6.7466  -35.7593  -34.9547 H   0  0  0  0  0  0  0  0  0  0  0  0
   -7.6949  -35.0687  -33.7043 H   0  0  0  0  0  0  0  0  0  0  0  0
   -5.6509  -33.1384  -35.4663 C   0  0  0  0  0  0  0  0  0  0  0  0
   -4.9260  -33.8062  -35.1039 H   0  0  0  0  0  0  0  0  0  0  0  0
   -5.5407  -33.0321  -36.5051 H   0  0  0  0  0  0  0  0  0  0  0  0
   -5.5280  -32.2037  -35.0039 H   0  0  0  0  0  0  0  0  0  0  0  0
   -7.7977  -34.0802  -36.4133 C   0  0  0  0  0  0  0  0  0  0  0  0
   -8.1464  -35.0658  -36.3164 H   0  0  0  0  0  0  0  0  0  0  0  0
   -7.1532  -34.0166  -37.2397 H   0  0  0  0  0  0  0  0  0  0  0  0
   -8.6124  -33.4330  -36.5543 H   0  0  0  0  0  0  0  0  0  0  0  0
   -8.7547  -33.0594  -34.2569 H   0  0  0  0  0  0  0  0  0  0  0  0
   -7.3818  -32.4172  -33.6064 H   0  0  0  0  0  0  0  0  0  0  0  0
   -9.0832  -31.2949  -35.3456 H   0  0  0  0  0  0  0  0  0  0  0  0
   -7.6021  -31.5528  -36.1700 H   0  0  0  0  0  0  0  0  0  0  0  0
   -7.6229  -30.3203  -33.5085 H   0  0  0  0  0  0  0  0  0  0  0  0
   -8.9518  -29.1453  -35.5310 H   0  0  0  0  0  0  0  0  0  0  0  0
   -7.3631  -28.5594  -35.8004 H   0  0  0  0  0  0  0  0  0  0  0  0
  1  2  1  0  0  0  0
  1 35  1  0  0  0  0
  2  3  2  0  0  0  0
  2 30  1  0  0  0  0
  3  4  1  0  0  0  0
  3 34  1  0  0  0  0
  4  5  2  0  0  0  0
  4 33  1  0  0  0  0
  5  6  1  0  0  0  0
  5 29  1  0  0  0  0
  6  7  1  0  0  0  0
  6 28  1  0  0  0  0
  7  8  2  0  0  0  0
  7  9  1  0  0  0  0
  9 10  1  0  0  0  0
  9 27  1  0  0  0  0
 10 11  1  0  0  0  0
 10 15  1  0  0  0  0
 10 26  1  0  0  0  0
 11 12  1  0  0  0  0
 11 24  1  0  0  0  0
 11 25  1  0  0  0  0
 12 13  1  0  0  0  0
 12 22  1  0  0  0  0
 12 23  1  0  0  0  0
 13 14  1  0  0  0  0
 13 20  1  0  0  0  0
 13 21  1  0  0  0  0
 14 15  1  0  0  0  0
 14 18  1  0  0  0  0
 14 19  1  0  0  0  0
 15 16  1  0  0  0  0
 15 17  1  0  0  0  0
 29 30  2  0  0  0  0
 29 32  1  0  0  0  0
 30 31  1  0  0  0  0
 35 36  1  0  0  0  0
 35 59  1  0  0  0  0
 35 60  1  0  0  0  0
 36 37  1  0  0  0  0
 36 39  1  0  0  0  0
 36 58  1  0  0  0  0
 37 38  1  0  0  0  0
 39 40  1  0  0  0  0
 39 56  1  0  0  0  0
 39 57  1  0  0  0  0
 40 41  1  0  0  0  0
 40 54  1  0  0  0  0
 40 55  1  0  0  0  0
 41 42  1  0  0  0  0
 41 46  1  0  0  0  0
 41 50  1  0  0  0  0
 42 43  1  0  0  0  0
 42 44  1  0  0  0  0
 42 45  1  0  0  0  0
 46 47  1  0  0  0  0
 46 48  1  0  0  0  0
 46 49  1  0  0  0  0
 50 51  1  0  0  0  0
 50 52  1  0  0  0  0
 50 53  1  0  0  0  0
M  CHG  1  40   1
M  END
> <CanonicalPdbName>
6HGV-G3Q_602_A

> <Gold.Version>
5.2

> <Gold.Id.Protein>
6HGV|6HGV_protein|mol2

> <Gold.PLP.Fitness>
78.7390

> <Gold.PLP.PLP>
-75.3216

> <Gold.PLP.part.hbond>
-7.2018

> <Gold.PLP.part.metal>
0.0000

> <Gold.PLP.part.buried>
5.3418

> <Gold.PLP.part.nonpolar>
-75.3282

> <Gold.PLP.part.repulsive>
0.0511

> <Gold.PLP.ligand.clash>
12.5858

> <Gold.PLP.ligand.torsion>
1.8244

> <Gold.PLP.Chemscore.Hbond>
2.9370

> <Gold.PLP.Chemscore.CHOScore>
0.0000

> <Gold.PLP.Chemscore.Metal>
0.0000

> <Gold.Chemscore.Hbonds>
donor molecule, donor type, donor heavy atom, donor atom, acceptor molecule, acceptor atom, score
      L1  H     6    28       P1   853  0.92
      L1  H     9    27       P1   853  0.96
      P1  H  1256  3855       L1     8  0.28
      P1  H  1247  3847       L1     8  0.77
      P1  H  1931  4507       L1     8  0.01

> <Gold.PLP.Chemscore.Internal.Correction>
8.0181

> <Gold.Protein.RotatedTorsions>
[ 3525  925  924  922 ] final   82.88 input   59.99 | X-H torsion
[ 3781 1176 1175 1172 ] final   26.87 input   60.00 | X-H torsion
[ 4531 1957 1955 1953 ] final  126.40 input   60.00 | X-H torsion
[ 3847 1247 1246 1244 ] final  149.69 input   60.00 | X-H torsion
[ 4507 1931 1930 1928 ] final  -40.78 input   60.00 | X-H torsion
[ 3677 1070 1069 1066 ] final -135.54 input   60.00 | X-H torsion

> <Gold.Protein.ActiveResidues>
 GLY266  PHE267  PRO268  GLU269  MET310  HIS334  ASP335  TRP336  GLY337  GLY338 
 MET339  LEU340  TRP342  TYR343  LEU358  ASN359  THR360  PRO361  ILE363  ALA365 
 MET369  SER370  PRO371  LEU372  GLU373  SER374  ILE375  LYS376  ALA377  ASN378 
 VAL380  PHE381  ASP382  TYR383  GLN384  PHE387  GLN388  LEU397  SER407  LEU408 
 PHE409  ARG410  LEU417  MET419  LEU428  PHE429  PHE459  TRP465  TYR466  ASN468 
 MET469  GLU470  ASN472  TRP473  ALA476  ASP496  PHE497  VAL498  LEU499  MET503 
 HIS524  TRP525 

> <Gold.Protein.RotatedAtoms>
   -2.4825  -30.0057  -30.7615 H   0  0  0  0  0  0  0  0  0  0  0  0  # atno 3525 bound_to 925 
  -11.2907  -23.3947  -31.4306 H   0  0  0  0  0  0  0  0  0  0  0  0  # atno 3677 bound_to 1070
  -10.8150  -37.3983  -33.2662 H   0  0  0  0  0  0  0  0  0  0  0  0  # atno 3781 bound_to 1176
  -14.3822  -27.8374  -37.9129 H   0  0  0  0  0  0  0  0  0  0  0  0  # atno 3847 bound_to 1247
  -13.6033  -25.3439  -39.6393 H   0  0  0  0  0  0  0  0  0  0  0  0  # atno 4507 bound_to 1931
   -2.2774  -34.0624  -36.8262 H   0  0  0  0  0  0  0  0  0  0  0  0  # atno 4531 bound_to 1957
   -3.7795  -29.5210  -29.9065 LP  0  0  0  0  0  0  0  0  0  0  0  0  # atno 5201 bound_to 925 
   -2.4841  -30.1557  -29.1411 LP  0  0  0  0  0  0  0  0  0  0  0  0  # atno 5202 bound_to 925 
   -9.7792  -36.4130  -34.0436 LP  0  0  0  0  0  0  0  0  0  0  0  0  # atno 5205 bound_to 1176
   -9.5111  -36.8181  -32.4845 LP  0  0  0  0  0  0  0  0  0  0  0  0  # atno 5206 bound_to 1176
   -2.9267  -32.5779  -36.6747 LP  0  0  0  0  0  0  0  0  0  0  0  0  # atno 5213 bound_to 1957
   -1.3316  -32.7472  -36.9809 LP  0  0  0  0  0  0  0  0  0  0  0  0  # atno 5214 bound_to 1957
  -15.2890  -28.9403  -37.1323 LP  0  0  0  0  0  0  0  0  0  0  0  0  # atno 5227 bound_to 1247
  -15.8989  -27.4611  -37.4588 LP  0  0  0  0  0  0  0  0  0  0  0  0  # atno 5228 bound_to 1247
  -13.0814  -23.9871  -40.3705 LP  0  0  0  0  0  0  0  0  0  0  0  0  # atno 5245 bound_to 1931
  -12.5062  -24.3977  -38.8984 LP  0  0  0  0  0  0  0  0  0  0  0  0  # atno 5246 bound_to 1931
  -11.8019  -22.1722  -30.4860 LP  0  0  0  0  0  0  0  0  0  0  0  0  # atno 5265 bound_to 1070
  -12.7661  -23.4639  -30.7476 LP  0  0  0  0  0  0  0  0  0  0  0  0  # atno 5266 bound_to 1070

$$$$
(6HGV) [A] G3Q602|ligand_6hgv|sdf|1|dock3
  -GOLD-  10202014243D 1   1.00000     0.00000

 60 61  0  0  0  0  0  0  0  0  2 V2000
   -8.2570  -27.8444  -33.9470 O   0  0  0  0  0  0  0  0  0  0  0  0
   -9.3558  -27.3021  -34.5711 C   0  0  0  0  0  0  0  0  0  0  0  0
   -9.8501  -26.1729  -33.9931 C   0  0  0  0  0  0  0  0  0  0  0  0
  -10.9534  -25.6077  -34.5294 C   0  0  0  0  0  0  0  0  0  0  0  0
  -11.5148  -26.1785  -35.6278 C   0  0  0  0  0  0  0  0  0  0  0  0
  -12.6935  -25.5332  -36.0984 N   0  0  0  0  0  0  0  0  0  0  0  0
  -13.5855  -25.7874  -37.1939 C   0  0  0  0  0  0  0  0  0  0  0  0
  -13.5562  -26.7151  -37.8749 O   0  0  0  0  0  0  0  0  0  0  0  0
  -14.6602  -24.8061  -37.2391 N   0  0  0  0  0  0  0  0  0  0  0  0
  -15.7816  -24.7224  -38.1942 C   0  0  0  0  0  0  0  0  0  0  0  0
  -16.0323  -23.3733  -38.7531 C   0  0  0  0  0  0  0  0  0  0  0  0
  -17.2580  -23.3393  -39.6749 C   0  0  0  0  0  0  0  0  0  0  0  0
  -18.5371  -23.8057  -39.0512 C   0  0  0  0  0  0  0  0  0  0  0  0
  -18.2073  -25.0988  -38.3789 C   0  0  0  0  0  0  0  0  0  0  0  0
  -17.0423  -24.9419  -37.4540 C   0  0  0  0  0  0  0  0  0  0  0  0
  -16.9607  -25.8138  -36.8747 H   0  0  0  0  0  0  0  0  0  0  0  0
  -17.2272  -24.1206  -36.8264 H   0  0  0  0  0  0  0  0  0  0  0  0
  -19.0462  -25.4180  -37.8340 H   0  0  0  0  0  0  0  0  0  0  0  0
  -17.9764  -25.8112  -39.1150 H   0  0  0  0  0  0  0  0  0  0  0  0
  -19.2632  -23.9368  -39.7981 H   0  0  0  0  0  0  0  0  0  0  0  0
  -18.8711  -23.0892  -38.3601 H   0  0  0  0  0  0  0  0  0  0  0  0
  -17.4249  -22.3547  -39.9992 H   0  0  0  0  0  0  0  0  0  0  0  0
  -17.0878  -23.9575  -40.5064 H   0  0  0  0  0  0  0  0  0  0  0  0
  -15.1983  -23.0654  -39.3119 H   0  0  0  0  0  0  0  0  0  0  0  0
  -16.1980  -22.6948  -37.9690 H   0  0  0  0  0  0  0  0  0  0  0  0
  -15.5937  -25.3549  -39.0110 H   0  0  0  0  0  0  0  0  0  0  0  0
  -14.6954  -24.0639  -36.5551 H   0  0  0  0  0  0  0  0  0  0  0  0
  -13.0476  -24.7170  -35.6203 H   0  0  0  0  0  0  0  0  0  0  0  0
  -11.0638  -27.3382  -36.1997 C   0  0  0  0  0  0  0  0  0  0  0  0
   -9.9422  -27.9106  -35.6684 C   0  0  0  0  0  0  0  0  0  0  0  0
   -9.5240  -28.7866  -36.0686 H   0  0  0  0  0  0  0  0  0  0  0  0
  -11.5763  -27.7551  -37.0158 H   0  0  0  0  0  0  0  0  0  0  0  0
  -11.3776  -24.7424  -34.1124 H   0  0  0  0  0  0  0  0  0  0  0  0
   -9.3749  -25.7626  -33.1514 H   0  0  0  0  0  0  0  0  0  0  0  0
   -7.7898  -28.7969  -34.8273 C   0  0  0  0  0  0  0  0  0  0  0  0
   -7.0576  -29.9185  -34.1179 C   0  0  0  0  0  0  0  0  0  0  0  0
   -5.7736  -29.4502  -33.8914 O   0  0  0  0  0  0  0  0  0  0  0  0
   -5.8024  -28.4331  -33.7314 H   0  0  0  0  0  0  0  0  0  0  0  0
   -6.9933  -31.1946  -34.9528 C   0  0  0  0  0  0  0  0  0  0  0  0
   -7.0075  -32.3971  -34.1366 N   0  3  0  0  0  0  0  0  0  0  0  0
   -6.5286  -33.5871  -34.8185 C   0  0  0  0  0  0  0  0  0  0  0  0
   -7.2970  -33.8633  -36.0899 C   0  0  0  0  0  0  0  0  0  0  0  0
   -8.1290  -34.4657  -35.8722 H   0  0  0  0  0  0  0  0  0  0  0  0
   -6.6746  -34.3601  -36.7742 H   0  0  0  0  0  0  0  0  0  0  0  0
   -7.6214  -32.9559  -36.5069 H   0  0  0  0  0  0  0  0  0  0  0  0
   -6.6897  -34.8193  -33.9246 C   0  0  0  0  0  0  0  0  0  0  0  0
   -7.2103  -35.5659  -34.4481 H   0  0  0  0  0  0  0  0  0  0  0  0
   -5.7422  -35.1795  -33.6510 H   0  0  0  0  0  0  0  0  0  0  0  0
   -7.2273  -34.5576  -33.0614 H   0  0  0  0  0  0  0  0  0  0  0  0
   -5.0785  -33.3465  -35.2003 C   0  0  0  0  0  0  0  0  0  0  0  0
   -5.0012  -33.2586  -36.2437 H   0  0  0  0  0  0  0  0  0  0  0  0
   -4.4918  -34.1532  -34.8725 H   0  0  0  0  0  0  0  0  0  0  0  0
   -4.7399  -32.4612  -34.7485 H   0  0  0  0  0  0  0  0  0  0  0  0
   -7.9618  -32.5409  -33.8386 H   0  0  0  0  0  0  0  0  0  0  0  0
   -6.4270  -32.2143  -33.3306 H   0  0  0  0  0  0  0  0  0  0  0  0
   -7.8216  -31.1998  -35.5982 H   0  0  0  0  0  0  0  0  0  0  0  0
   -6.1091  -31.1658  -35.5182 H   0  0  0  0  0  0  0  0  0  0  0  0
   -7.5130  -30.1490  -33.2003 H   0  0  0  0  0  0  0  0  0  0  0  0
   -8.5975  -29.2145  -35.3522 H   0  0  0  0  0  0  0  0  0  0  0  0
   -7.1247  -28.3501  -35.5059 H   0  0  0  0  0  0  0  0  0  0  0  0
  1  2  1  0  0  0  0
  1 35  1  0  0  0  0
  2  3  2  0  0  0  0
  2 30  1  0  0  0  0
  3  4  1  0  0  0  0
  3 34  1  0  0  0  0
  4  5  2  0  0  0  0
  4 33  1  0  0  0  0
  5  6  1  0  0  0  0
  5 29  1  0  0  0  0
  6  7  1  0  0  0  0
  6 28  1  0  0  0  0
  7  8  2  0  0  0  0
  7  9  1  0  0  0  0
  9 10  1  0  0  0  0
  9 27  1  0  0  0  0
 10 11  1  0  0  0  0
 10 15  1  0  0  0  0
 10 26  1  0  0  0  0
 11 12  1  0  0  0  0
 11 24  1  0  0  0  0
 11 25  1  0  0  0  0
 12 13  1  0  0  0  0
 12 22  1  0  0  0  0
 12 23  1  0  0  0  0
 13 14  1  0  0  0  0
 13 20  1  0  0  0  0
 13 21  1  0  0  0  0
 14 15  1  0  0  0  0
 14 18  1  0  0  0  0
 14 19  1  0  0  0  0
 15 16  1  0  0  0  0
 15 17  1  0  0  0  0
 29 30  2  0  0  0  0
 29 32  1  0  0  0  0
 30 31  1  0  0  0  0
 35 36  1  0  0  0  0
 35 59  1  0  0  0  0
 35 60  1  0  0  0  0
 36 37  1  0  0  0  0
 36 39  1  0  0  0  0
 36 58  1  0  0  0  0
 37 38  1  0  0  0  0
 39 40  1  0  0  0  0
 39 56  1  0  0  0  0
 39 57  1  0  0  0  0
 40 41  1  0  0  0  0
 40 54  1  0  0  0  0
 40 55  1  0  0  0  0
 41 42  1  0  0  0  0
 41 46  1  0  0  0  0
 41 50  1  0  0  0  0
 42 43  1  0  0  0  0
 42 44  1  0  0  0  0
 42 45  1  0  0  0  0
 46 47  1  0  0  0  0
 46 48  1  0  0  0  0
 46 49  1  0  0  0  0
 50 51  1  0  0  0  0
 50 52  1  0  0  0  0
 50 53  1  0  0  0  0
M  CHG  1  40   1
M  END
> <CanonicalPdbName>
6HGV-G3Q_602_A

> <Gold.Version>
5.2

> <Gold.Id.Protein>
6HGV|6HGV_protein|mol2

> <Gold.PLP.Fitness>
78.5346

> <Gold.PLP.PLP>
-71.7724

> <Gold.PLP.part.hbond>
-7.6407

> <Gold.PLP.part.metal>
0.0000

> <Gold.PLP.part.buried>
11.4058

> <Gold.PLP.part.nonpolar>
-75.3395

> <Gold.PLP.part.repulsive>
0.0546

> <Gold.PLP.ligand.clash>
9.4991

> <Gold.PLP.ligand.torsion>
1.1395

> <Gold.PLP.Chemscore.Hbond>
2.8092

> <Gold.PLP.Chemscore.CHOScore>
0.0000

> <Gold.PLP.Chemscore.Metal>
0.0000

> <Gold.Chemscore.Hbonds>
donor molecule, donor type, donor heavy atom, donor atom, acceptor molecule, acceptor atom, score
      L1  H     6    28       P1   853  0.85
      L1  H     9    27       P1   853  0.98
      P1  H  1256  3855       L1     8  0.24
      P1  H  1247  3847       L1     8  0.73
      P1  H  1931  4507       L1     8  0.01

> <Gold.PLP.Chemscore.Internal.Correction>
8.0181

> <Gold.Protein.RotatedTorsions>
[ 3525  925  924  922 ] final  -42.92 input   59.99 | X-H torsion
[ 3781 1176 1175 1172 ] final    8.72 input   60.00 | X-H torsion
[ 4531 1957 1955 1953 ] final  -98.28 input   60.00 | X-H torsion
[ 3847 1247 1246 1244 ] final  149.18 input   60.00 | X-H torsion
[ 4507 1931 1930 1928 ] final  -45.82 input   60.00 | X-H torsion
[ 3677 1070 1069 1066 ] final  128.96 input   60.00 | X-H torsion

> <Gold.Protein.ActiveResidues>
 GLY266  PHE267  PRO268  GLU269  MET310  HIS334  ASP335  TRP336  GLY337  GLY338 
 MET339  LEU340  TRP342  TYR343  LEU358  ASN359  THR360  PRO361  ILE363  ALA365 
 MET369  SER370  PRO371  LEU372  GLU373  SER374  ILE375  LYS376  ALA377  ASN378 
 VAL380  PHE381  ASP382  TYR383  GLN384  PHE387  GLN388  LEU397  SER407  LEU408 
 PHE409  ARG410  LEU417  MET419  LEU428  PHE429  PHE459  TRP465  TYR466  ASN468 
 MET469  GLU470  ASN472  TRP473  ALA476  ASP496  PHE497  VAL498  LEU499  MET503 
 HIS524  TRP525 

> <Gold.Protein.RotatedAtoms>
   -3.7683  -29.5319  -29.8125 H   0  0  0  0  0  0  0  0  0  0  0  0  # atno 3525 bound_to 925 
  -11.4637  -22.2380  -30.6868 H   0  0  0  0  0  0  0  0  0  0  0  0  # atno 3677 bound_to 1070
  -10.8241  -37.3001  -33.5446 H   0  0  0  0  0  0  0  0  0  0  0  0  # atno 3781 bound_to 1176
  -14.3791  -27.8449  -37.9112 H   0  0  0  0  0  0  0  0  0  0  0  0  # atno 3847 bound_to 1247
  -13.6302  -25.3203  -39.7134 H   0  0  0  0  0  0  0  0  0  0  0  0  # atno 4507 bound_to 1931
   -1.4662  -32.5374  -36.9541 H   0  0  0  0  0  0  0  0  0  0  0  0  # atno 4531 bound_to 1957
   -2.4105  -30.1828  -29.1954 LP  0  0  0  0  0  0  0  0  0  0  0  0  # atno 5201 bound_to 925 
   -2.5581  -29.9710  -30.8079 LP  0  0  0  0  0  0  0  0  0  0  0  0  # atno 5202 bound_to 925 
   -9.5563  -36.3314  -33.8643 LP  0  0  0  0  0  0  0  0  0  0  0  0  # atno 5205 bound_to 1176
   -9.7248  -36.9986  -32.3834 LP  0  0  0  0  0  0  0  0  0  0  0  0  # atno 5206 bound_to 1176
   -2.0307  -34.0614  -36.8707 LP  0  0  0  0  0  0  0  0  0  0  0  0  # atno 5213 bound_to 1957
   -3.0445  -32.7993  -36.6561 LP  0  0  0  0  0  0  0  0  0  0  0  0  # atno 5214 bound_to 1957
  -15.2968  -28.9384  -37.1300 LP  0  0  0  0  0  0  0  0  0  0  0  0  # atno 5227 bound_to 1247
  -15.8942  -27.4555  -37.4628 LP  0  0  0  0  0  0  0  0  0  0  0  0  # atno 5228 bound_to 1247
  -13.0255  -23.9412  -40.3302 LP  0  0  0  0  0  0  0  0  0  0  0  0  # atno 5245 bound_to 1931
  -12.5351  -24.4674  -38.8641 LP  0  0  0  0  0  0  0  0  0  0  0  0  # atno 5246 bound_to 1931
  -12.8160  -23.1300  -30.5329 LP  0  0  0  0  0  0  0  0  0  0  0  0  # atno 5265 bound_to 1070
  -11.5778  -23.6709  -31.4497 LP  0  0  0  0  0  0  0  0  0  0  0  0  # atno 5266 bound_to 1070

$$$$
EZ_12|Lisa_paper2_min|sdf|1|dock3
  -GOLD-  10202014243D 1   1.00000     0.00000

 63 66  0  0  0  0  0  0  0  0  1 V2000
   -2.9861  -30.6047  -33.0264 C   0  0  0  0  0  0  0  0  0  0  0  0
   -3.4784  -31.8995  -33.1760 C   0  0  0  0  0  0  0  0  0  0  0  0
   -3.7572  -29.5001  -33.3999 C   0  0  0  0  0  0  0  0  0  0  0  0
   -4.7539  -32.1337  -33.7018 C   0  0  0  0  0  0  0  0  0  0  0  0
  -11.6616  -26.8523  -36.2961 C   0  0  0  0  0  0  0  0  0  0  0  0
  -17.8428  -24.6952  -37.2573 C   0  0  0  0  0  0  0  0  0  0  0  0
  -10.4218  -27.4286  -36.0197 C   0  0  0  0  0  0  0  0  0  0  0  0
  -18.8556  -24.5351  -38.2027 C   0  0  0  0  0  0  0  0  0  0  0  0
  -10.4465  -26.4268  -33.8213 C   0  0  0  0  0  0  0  0  0  0  0  0
  -16.1847  -24.5432  -39.0079 C   0  0  0  0  0  0  0  0  0  0  0  0
  -11.6862  -25.8504  -34.0978 C   0  0  0  0  0  0  0  0  0  0  0  0
   -5.0412  -29.7175  -33.9303 C   0  0  0  0  0  0  0  0  0  0  0  0
   -5.5208  -31.0200  -34.0739 C   0  0  0  0  0  0  0  0  0  0  0  0
  -16.5072  -24.6992  -37.6598 C   0  0  0  0  0  0  0  0  0  0  0  0
  -12.2937  -26.0632  -35.3352 C   0  0  0  0  0  0  0  0  0  0  0  0
   -9.8142  -27.2159  -34.7823 C   0  0  0  0  0  0  0  0  0  0  0  0
  -18.5331  -24.3791  -39.5508 C   0  0  0  0  0  0  0  0  0  0  0  0
  -17.1976  -24.3832  -39.9534 C   0  0  0  0  0  0  0  0  0  0  0  0
   -6.9907  -29.5170  -34.7593 C   0  0  0  0  0  0  0  0  0  0  0  0
   -7.6917  -31.8953  -34.9475 C   0  0  0  0  0  0  0  0  0  0  0  0
  -14.2861  -25.5889  -36.8269 C   0  0  0  0  0  0  0  0  0  0  0  0
  -12.3398  -25.0098  -33.0495 C   0  0  0  0  0  0  0  0  0  0  0  0
   -8.0867  -34.2150  -36.5755 C   0  0  0  0  0  0  0  0  0  0  0  0
   -7.1903  -35.4902  -34.6057 C   0  0  0  0  0  0  0  0  0  0  0  0
   -9.2943  -34.1393  -34.3686 C   0  0  0  0  0  0  0  0  0  0  0  0
   -8.2238  -28.9048  -35.3056 C   0  0  0  0  0  0  0  0  0  0  0  0
   -7.9327  -34.2336  -35.0554 C   0  0  0  0  0  0  0  0  0  0  0  0
   -5.9649  -28.8032  -34.3600 N   0  0  0  0  0  0  0  0  0  0  0  0
   -6.7928  -30.8757  -34.6150 N   0  0  0  0  0  0  0  0  0  0  0  0
  -15.4800  -24.8610  -36.7003 N   0  0  0  0  0  0  0  0  0  0  0  0
  -13.5343  -25.4930  -35.6318 N   0  0  0  0  0  0  0  0  0  0  0  0
   -8.7886  -31.6467  -35.4197 O   0  0  0  0  0  0  0  0  0  0  0  0
  -13.9401  -26.2167  -37.8225 O   0  0  0  0  0  0  0  0  0  0  0  0
   -8.5981  -27.7818  -34.5109 O   0  0  0  0  0  0  0  0  0  0  0  0
   -7.1457  -33.1049  -34.6638 O   0  0  0  0  0  0  0  0  0  0  0  0
  -19.8331  -24.1881  -40.6740 Cl  0  0  0  0  0  0  0  0  0  0  0  0
  -16.7349  -24.1966  -41.6087 Cl  0  0  0  0  0  0  0  0  0  0  0  0
   -1.9921  -30.4502  -32.6154 H   0  0  0  0  0  0  0  0  0  0  0  0
   -2.8613  -32.7441  -32.8795 H   0  0  0  0  0  0  0  0  0  0  0  0
   -3.3669  -28.4941  -33.2808 H   0  0  0  0  0  0  0  0  0  0  0  0
   -5.1134  -33.1504  -33.8080 H   0  0  0  0  0  0  0  0  0  0  0  0
  -12.1250  -27.0243  -37.2646 H   0  0  0  0  0  0  0  0  0  0  0  0
  -18.1049  -24.8145  -36.2091 H   0  0  0  0  0  0  0  0  0  0  0  0
   -9.9347  -28.0427  -36.7722 H   0  0  0  0  0  0  0  0  0  0  0  0
  -19.8909  -24.5329  -37.8707 H   0  0  0  0  0  0  0  0  0  0  0  0
   -9.9700  -26.2625  -32.8577 H   0  0  0  0  0  0  0  0  0  0  0  0
  -15.1410  -24.5486  -39.3160 H   0  0  0  0  0  0  0  0  0  0  0  0
  -12.0345  -23.9629  -33.1584 H   0  0  0  0  0  0  0  0  0  0  0  0
  -13.4326  -25.0654  -33.1224 H   0  0  0  0  0  0  0  0  0  0  0  0
  -12.0686  -25.3510  -32.0430 H   0  0  0  0  0  0  0  0  0  0  0  0
   -8.6190  -33.3147  -36.9022 H   0  0  0  0  0  0  0  0  0  0  0  0
   -7.1154  -34.2470  -37.0798 H   0  0  0  0  0  0  0  0  0  0  0  0
   -8.6830  -35.0683  -36.9186 H   0  0  0  0  0  0  0  0  0  0  0  0
   -7.0776  -35.5077  -33.5157 H   0  0  0  0  0  0  0  0  0  0  0  0
   -6.1765  -35.5143  -35.0214 H   0  0  0  0  0  0  0  0  0  0  0  0
   -7.7135  -36.4009  -34.9149 H   0  0  0  0  0  0  0  0  0  0  0  0
   -9.1841  -34.1526  -33.2782 H   0  0  0  0  0  0  0  0  0  0  0  0
   -9.8260  -33.2248  -34.6511 H   0  0  0  0  0  0  0  0  0  0  0  0
   -9.9213  -35.0004  -34.6265 H   0  0  0  0  0  0  0  0  0  0  0  0
   -8.0867  -28.5606  -36.3439 H   0  0  0  0  0  0  0  0  0  0  0  0
   -9.0638  -29.6186  -35.3129 H   0  0  0  0  0  0  0  0  0  0  0  0
  -15.6242  -24.3924  -35.8095 H   0  0  0  0  0  0  0  0  0  0  0  0
  -13.9658  -24.9294  -34.8928 H   0  0  0  0  0  0  0  0  0  0  0  0
  1  2  2  0  0  0  0
  1  3  1  0  0  0  0
  2  4  1  0  0  0  0
  3 12  2  0  0  0  0
  4 13  2  0  0  0  0
  5  7  1  0  0  0  0
  5 15  2  0  0  0  0
  6  8  1  0  0  0  0
  6 14  2  0  0  0  0
  7 16  2  0  0  0  0
  8 17  2  0  0  0  0
  9 11  2  0  0  0  0
  9 16  1  0  0  0  0
 10 14  1  0  0  0  0
 10 18  2  0  0  0  0
 11 15  1  0  0  0  0
 11 22  1  0  0  0  0
 12 13  1  0  0  0  0
 12 28  1  0  0  0  0
 13 29  1  0  0  0  0
 14 30  1  0  0  0  0
 15 31  1  0  0  0  0
 16 34  1  0  0  0  0
 17 18  1  0  0  0  0
 17 36  1  0  0  0  0
 18 37  1  0  0  0  0
 19 26  1  0  0  0  0
 19 28  2  0  0  0  0
 19 29  1  0  0  0  0
 20 29  1  0  0  0  0
 20 32  2  0  0  0  0
 20 35  1  0  0  0  0
 21 30  1  0  0  0  0
 21 31  1  0  0  0  0
 21 33  2  0  0  0  0
 23 27  1  0  0  0  0
 24 27  1  0  0  0  0
 25 27  1  0  0  0  0
 26 34  1  0  0  0  0
 27 35  1  0  0  0  0
  1 38  1  0  0  0  0
  2 39  1  0  0  0  0
  3 40  1  0  0  0  0
  4 41  1  0  0  0  0
  5 42  1  0  0  0  0
  6 43  1  0  0  0  0
  7 44  1  0  0  0  0
  8 45  1  0  0  0  0
  9 46  1  0  0  0  0
 10 47  1  0  0  0  0
 22 48  1  0  0  0  0
 22 49  1  0  0  0  0
 22 50  1  0  0  0  0
 23 51  1  0  0  0  0
 23 52  1  0  0  0  0
 23 53  1  0  0  0  0
 24 54  1  0  0  0  0
 24 55  1  0  0  0  0
 24 56  1  0  0  0  0
 25 57  1  0  0  0  0
 25 58  1  0  0  0  0
 25 59  1  0  0  0  0
 26 60  1  0  0  0  0
 26 61  1  0  0  0  0
 30 62  1  0  0  0  0
 31 63  1  0  0  0  0
M  END
> <SourceTag>
EZ_12

> <Clean Energy>
28.3989

> <Activity_sEH>
0.7

> <Activity_FLAP>
3.7

> <Gold.Version>
5.2

> <Gold.Id.Protein>
6HGV|6HGV_protein|mol2

> <Gold.PLP.Fitness>
89.1178

> <Gold.PLP.PLP>
-80.7626

> <Gold.PLP.part.hbond>
-6.3211

> <Gold.PLP.part.metal>
0.0000

> <Gold.PLP.part.buried>
5.7871

> <Gold.PLP.part.nonpolar>
-82.6620

> <Gold.PLP.part.repulsive>
0.0868

> <Gold.PLP.ligand.clash>
0.2776

> <Gold.PLP.ligand.torsion>
0.8438

> <Gold.PLP.Chemscore.Hbond>
2.6979

> <Gold.PLP.Chemscore.CHOScore>
0.0000

> <Gold.PLP.Chemscore.Metal>
0.0000

> <Gold.Chemscore.Hbonds>
donor molecule, donor type, donor heavy atom, donor atom, acceptor molecule, acceptor atom, score
      L1  H    30    62       P1   853  0.47
      L1  H    31    63       P1   853  0.55
      P1  H  1247  3847       L1    33  0.77
      P1  H  1931  4507       L1    33  0.91

> <Gold.PLP.Chemscore.Internal.Correction>
0.4657

> <Gold.Protein.RotatedTorsions>
[ 3525  925  924  922 ] final -117.50 input   59.99 | X-H torsion
[ 3781 1176 1175 1172 ] final  131.47 input   60.00 | X-H torsion
[ 4531 1957 1955 1953 ] final  169.81 input   60.00 | X-H torsion
[ 3847 1247 1246 1244 ] final  170.22 input   60.00 | X-H torsion
[ 4507 1931 1930 1928 ] final  -22.05 input   60.00 | X-H torsion
[ 3677 1070 1069 1066 ] final -122.34 input   60.00 | X-H torsion

> <Gold.Protein.ActiveResidues>
 GLY266  PHE267  PRO268  GLU269  MET310  HIS334  ASP335  TRP336  GLY337  GLY338 
 MET339  LEU340  TRP342  TYR343  LEU358  ASN359  THR360  PRO361  ILE363  ALA365 
 MET369  SER370  PRO371  LEU372  GLU373  SER374  ILE375  LYS376  ALA377  ASN378 
 VAL380  PHE381  ASP382  TYR383  GLN384  PHE387  GLN388  LEU397  SER407  LEU408 
 PHE409  ARG410  LEU417  MET419  LEU428  PHE429  PHE459  TRP465  TYR466  ASN468 
 MET469  GLU470  ASN472  TRP473  ALA476  ASP496  PHE497  VAL498  LEU499  MET503 
 HIS524  TRP525 

> <Gold.Protein.RotatedAtoms>
   -3.0594  -29.9141  -29.0136 H   0  0  0  0  0  0  0  0  0  0  0  0  # atno 3525 bound_to 925 
  -11.4343  -23.5537  -31.4505 H   0  0  0  0  0  0  0  0  0  0  0  0  # atno 3677 bound_to 1070
   -9.6910  -36.9728  -32.4000 H   0  0  0  0  0  0  0  0  0  0  0  0  # atno 3781 bound_to 1176
  -14.5560  -27.5554  -37.9525 H   0  0  0  0  0  0  0  0  0  0  0  0  # atno 3847 bound_to 1247
  -13.4688  -25.3790  -39.3682 H   0  0  0  0  0  0  0  0  0  0  0  0  # atno 4507 bound_to 1931
   -1.6219  -33.8744  -36.9476 H   0  0  0  0  0  0  0  0  0  0  0  0  # atno 4531 bound_to 1957
   -2.1032  -30.2162  -30.2952 LP  0  0  0  0  0  0  0  0  0  0  0  0  # atno 5201 bound_to 925 
   -3.5794  -29.5527  -30.5126 LP  0  0  0  0  0  0  0  0  0  0  0  0  # atno 5202 bound_to 925 
  -10.8347  -37.3191  -33.5046 LP  0  0  0  0  0  0  0  0  0  0  0  0  # atno 5205 bound_to 1176
   -9.5874  -36.3404  -33.8958 LP  0  0  0  0  0  0  0  0  0  0  0  0  # atno 5206 bound_to 1176
   -3.0974  -33.2539  -36.6539 LP  0  0  0  0  0  0  0  0  0  0  0  0  # atno 5213 bound_to 1957
   -1.8209  -32.2607  -36.8794 LP  0  0  0  0  0  0  0  0  0  0  0  0  # atno 5214 bound_to 1957
  -14.9743  -28.9613  -37.2478 LP  0  0  0  0  0  0  0  0  0  0  0  0  # atno 5227 bound_to 1247
  -16.0386  -27.7241  -37.3033 LP  0  0  0  0  0  0  0  0  0  0  0  0  # atno 5228 bound_to 1247
  -13.2850  -24.1946  -40.4688 LP  0  0  0  0  0  0  0  0  0  0  0  0  # atno 5245 bound_to 1931
  -12.4381  -24.1549  -39.0732 LP  0  0  0  0  0  0  0  0  0  0  0  0  # atno 5246 bound_to 1931
  -11.6109  -22.1854  -30.5875 LP  0  0  0  0  0  0  0  0  0  0  0  0  # atno 5265 bound_to 1070
  -12.8125  -23.2906  -30.6261 LP  0  0  0  0  0  0  0  0  0  0  0  0  # atno 5266 bound_to 1070

$$$$
EZ_12|Lisa_paper2_min|sdf|1|dock5
  -GOLD-  10202014243D 1   1.00000     0.00000

 63 66  0  0  0  0  0  0  0  0  1 V2000
   -4.1900  -31.5661  -35.1038 C   0  0  0  0  0  0  0  0  0  0  0  0
   -5.0940  -32.6063  -35.3090 C   0  0  0  0  0  0  0  0  0  0  0  0
   -4.6390  -30.2864  -34.7648 C   0  0  0  0  0  0  0  0  0  0  0  0
   -6.4728  -32.4038  -35.1826 C   0  0  0  0  0  0  0  0  0  0  0  0
  -12.5042  -25.8969  -36.2447 C   0  0  0  0  0  0  0  0  0  0  0  0
  -19.1720  -25.2439  -37.1495 C   0  0  0  0  0  0  0  0  0  0  0  0
  -11.1479  -26.1899  -36.1021 C   0  0  0  0  0  0  0  0  0  0  0  0
  -20.1509  -24.6661  -37.9579 C   0  0  0  0  0  0  0  0  0  0  0  0
  -11.7060  -28.1198  -34.7600 C   0  0  0  0  0  0  0  0  0  0  0  0
  -17.4511  -24.2840  -38.5474 C   0  0  0  0  0  0  0  0  0  0  0  0
  -13.0623  -27.8266  -34.9024 C   0  0  0  0  0  0  0  0  0  0  0  0
   -6.0216  -30.0653  -34.6338 C   0  0  0  0  0  0  0  0  0  0  0  0
   -6.9147  -31.1170  -34.8422 C   0  0  0  0  0  0  0  0  0  0  0  0
  -17.8220  -25.0528  -37.4442 C   0  0  0  0  0  0  0  0  0  0  0  0
  -13.4613  -26.7153  -35.6448 C   0  0  0  0  0  0  0  0  0  0  0  0
  -10.7488  -27.3013  -35.3598 C   0  0  0  0  0  0  0  0  0  0  0  0
  -19.7799  -23.8973  -39.0610 C   0  0  0  0  0  0  0  0  0  0  0  0
  -18.4299  -23.7063  -39.3558 C   0  0  0  0  0  0  0  0  0  0  0  0
   -7.9568  -29.2371  -34.3232 C   0  0  0  0  0  0  0  0  0  0  0  0
   -9.4086  -31.2150  -34.7273 C   0  0  0  0  0  0  0  0  0  0  0  0
  -15.4529  -25.7489  -36.8773 C   0  0  0  0  0  0  0  0  0  0  0  0
  -14.0652  -28.7208  -34.2486 C   0  0  0  0  0  0  0  0  0  0  0  0
  -11.4548  -33.0215  -35.7892 C   0  0  0  0  0  0  0  0  0  0  0  0
   -9.8742  -34.8135  -35.0147 C   0  0  0  0  0  0  0  0  0  0  0  0
  -10.7997  -33.1631  -33.3632 C   0  0  0  0  0  0  0  0  0  0  0  0
   -9.0313  -28.2623  -34.0247 C   0  0  0  0  0  0  0  0  0  0  0  0
  -10.3405  -33.3744  -34.8051 C   0  0  0  0  0  0  0  0  0  0  0  0
   -6.6859  -28.9120  -34.3143 N   0  0  0  0  0  0  0  0  0  0  0  0
   -8.1732  -30.5641  -34.6364 N   0  0  0  0  0  0  0  0  0  0  0  0
  -16.8293  -25.6385  -36.6235 N   0  0  0  0  0  0  0  0  0  0  0  0
  -14.8147  -26.4039  -35.7974 N   0  0  0  0  0  0  0  0  0  0  0  0
  -10.4556  -30.6229  -34.5237 O   0  0  0  0  0  0  0  0  0  0  0  0
  -14.8820  -25.3402  -37.8835 O   0  0  0  0  0  0  0  0  0  0  0  0
   -9.4181  -27.5891  -35.2205 O   0  0  0  0  0  0  0  0  0  0  0  0
   -9.2224  -32.5181  -35.0573 O   0  0  0  0  0  0  0  0  0  0  0  0
  -21.0394  -23.2107  -40.0256 Cl  0  0  0  0  0  0  0  0  0  0  0  0
  -17.9077  -22.7663  -40.7096 Cl  0  0  0  0  0  0  0  0  0  0  0  0
   -3.1242  -31.7500  -35.2083 H   0  0  0  0  0  0  0  0  0  0  0  0
   -4.7227  -33.5936  -35.5726 H   0  0  0  0  0  0  0  0  0  0  0  0
   -3.9288  -29.4806  -34.6067 H   0  0  0  0  0  0  0  0  0  0  0  0
   -7.1549  -33.2294  -35.3476 H   0  0  0  0  0  0  0  0  0  0  0  0
  -12.8032  -25.0272  -36.8247 H   0  0  0  0  0  0  0  0  0  0  0  0
  -19.4718  -25.8399  -36.2913 H   0  0  0  0  0  0  0  0  0  0  0  0
  -10.4071  -25.5488  -36.5722 H   0  0  0  0  0  0  0  0  0  0  0  0
  -21.1981  -24.8243  -37.7122 H   0  0  0  0  0  0  0  0  0  0  0  0
  -11.3916  -28.9852  -34.1815 H   0  0  0  0  0  0  0  0  0  0  0  0
  -16.3963  -24.1397  -38.7730 H   0  0  0  0  0  0  0  0  0  0  0  0
  -14.2834  -28.3678  -33.2344 H   0  0  0  0  0  0  0  0  0  0  0  0
  -15.0014  -28.7487  -34.8190 H   0  0  0  0  0  0  0  0  0  0  0  0
  -13.6961  -29.7520  -34.1889 H   0  0  0  0  0  0  0  0  0  0  0  0
  -11.7923  -31.9894  -35.6419 H   0  0  0  0  0  0  0  0  0  0  0  0
  -11.1271  -33.1354  -36.8276 H   0  0  0  0  0  0  0  0  0  0  0  0
  -12.3324  -33.6590  -35.6313 H   0  0  0  0  0  0  0  0  0  0  0  0
   -9.0747  -35.0710  -34.3108 H   0  0  0  0  0  0  0  0  0  0  0  0
   -9.4557  -34.9458  -36.0190 H   0  0  0  0  0  0  0  0  0  0  0  0
  -10.6943  -35.5269  -34.8841 H   0  0  0  0  0  0  0  0  0  0  0  0
  -10.0005  -33.4161  -32.6571 H   0  0  0  0  0  0  0  0  0  0  0  0
  -11.1033  -32.1264  -33.1845 H   0  0  0  0  0  0  0  0  0  0  0  0
  -11.6439  -33.8195  -33.1229 H   0  0  0  0  0  0  0  0  0  0  0  0
   -9.9241  -28.7514  -33.6016 H   0  0  0  0  0  0  0  0  0  0  0  0
   -8.7031  -27.5061  -33.2928 H   0  0  0  0  0  0  0  0  0  0  0  0
  -17.1526  -26.0275  -35.7414 H   0  0  0  0  0  0  0  0  0  0  0  0
  -15.4363  -26.6831  -35.0321 H   0  0  0  0  0  0  0  0  0  0  0  0
  1  2  2  0  0  0  0
  1  3  1  0  0  0  0
  2  4  1  0  0  0  0
  3 12  2  0  0  0  0
  4 13  2  0  0  0  0
  5  7  1  0  0  0  0
  5 15  2  0  0  0  0
  6  8  1  0  0  0  0
  6 14  2  0  0  0  0
  7 16  2  0  0  0  0
  8 17  2  0  0  0  0
  9 11  2  0  0  0  0
  9 16  1  0  0  0  0
 10 14  1  0  0  0  0
 10 18  2  0  0  0  0
 11 15  1  0  0  0  0
 11 22  1  0  0  0  0
 12 13  1  0  0  0  0
 12 28  1  0  0  0  0
 13 29  1  0  0  0  0
 14 30  1  0  0  0  0
 15 31  1  0  0  0  0
 16 34  1  0  0  0  0
 17 18  1  0  0  0  0
 17 36  1  0  0  0  0
 18 37  1  0  0  0  0
 19 26  1  0  0  0  0
 19 28  2  0  0  0  0
 19 29  1  0  0  0  0
 20 29  1  0  0  0  0
 20 32  2  0  0  0  0
 20 35  1  0  0  0  0
 21 30  1  0  0  0  0
 21 31  1  0  0  0  0
 21 33  2  0  0  0  0
 23 27  1  0  0  0  0
 24 27  1  0  0  0  0
 25 27  1  0  0  0  0
 26 34  1  0  0  0  0
 27 35  1  0  0  0  0
  1 38  1  0  0  0  0
  2 39  1  0  0  0  0
  3 40  1  0  0  0  0
  4 41  1  0  0  0  0
  5 42  1  0  0  0  0
  6 43  1  0  0  0  0
  7 44  1  0  0  0  0
  8 45  1  0  0  0  0
  9 46  1  0  0  0  0
 10 47  1  0  0  0  0
 22 48  1  0  0  0  0
 22 49  1  0  0  0  0
 22 50  1  0  0  0  0
 23 51  1  0  0  0  0
 23 52  1  0  0  0  0
 23 53  1  0  0  0  0
 24 54  1  0  0  0  0
 24 55  1  0  0  0  0
 24 56  1  0  0  0  0
 25 57  1  0  0  0  0
 25 58  1  0  0  0  0
 25 59  1  0  0  0  0
 26 60  1  0  0  0  0
 26 61  1  0  0  0  0
 30 62  1  0  0  0  0
 31 63  1  0  0  0  0
M  END
> <SourceTag>
EZ_12

> <Clean Energy>
28.3989

> <Activity_sEH>
0.7

> <Activity_FLAP>
3.7

> <Gold.Version>
5.2

> <Gold.Id.Protein>
6HGV|6HGV_protein|mol2

> <Gold.PLP.Fitness>
87.9090

> <Gold.PLP.PLP>
-85.0148

> <Gold.PLP.part.hbond>
-7.3608

> <Gold.PLP.part.metal>
0.0000

> <Gold.PLP.part.buried>
7.8282

> <Gold.PLP.part.nonpolar>
-87.6834

> <Gold.PLP.part.repulsive>
0.1490

> <Gold.PLP.ligand.clash>
0.0000

> <Gold.PLP.ligand.torsion>
1.5130

> <Gold.PLP.Chemscore.Hbond>
1.1801

> <Gold.PLP.Chemscore.CHOScore>
0.0000

> <Gold.PLP.Chemscore.Metal>
0.0000

> <Gold.Chemscore.Hbonds>
donor molecule, donor type, donor heavy atom, donor atom, acceptor molecule, acceptor atom, score
      P1  H  1256  3854       L1    32  0.29
      P1  H  1931  4507       L1    33  0.89

> <Gold.PLP.Chemscore.Internal.Correction>
0.4657

> <Gold.Protein.RotatedTorsions>
[ 3525  925  924  922 ] final  -24.47 input   59.99 | X-H torsion
[ 3781 1176 1175 1172 ] final  -25.89 input   60.00 | X-H torsion
[ 4531 1957 1955 1953 ] final  106.28 input   60.00 | X-H torsion
[ 3847 1247 1246 1244 ] final  -38.66 input   60.00 | X-H torsion
[ 4507 1931 1930 1928 ] final   -8.59 input   60.00 | X-H torsion
[ 3677 1070 1069 1066 ] final -102.03 input   60.00 | X-H torsion

> <Gold.Protein.ActiveResidues>
 GLY266  PHE267  PRO268  GLU269  MET310  HIS334  ASP335  TRP336  GLY337  GLY338 
 MET339  LEU340  TRP342  TYR343  LEU358  ASN359  THR360  PRO361  ILE363  ALA365 
 MET369  SER370  PRO371  LEU372  GLU373  SER374  ILE375  LYS376  ALA377  ASN378 
 VAL380  PHE381  ASP382  TYR383  GLN384  PHE387  GLN388  LEU397  SER407  LEU408 
 PHE409  ARG410  LEU417  MET419  LEU428  PHE429  PHE459  TRP465  TYR466  ASN468 
 MET469  GLU470  ASN472  TRP473  ALA476  ASP496  PHE497  VAL498  LEU499  MET503 
 HIS524  TRP525 

> <Gold.Protein.RotatedAtoms>
   -3.7512  -29.5120  -30.1116 H   0  0  0  0  0  0  0  0  0  0  0  0  # atno 3525 bound_to 925 
  -11.7056  -23.7400  -31.4232 H   0  0  0  0  0  0  0  0  0  0  0  0  # atno 3677 bound_to 1070
  -10.6298  -37.0083  -33.9775 H   0  0  0  0  0  0  0  0  0  0  0  0  # atno 3781 bound_to 1176
  -16.0374  -28.1960  -37.1260 H   0  0  0  0  0  0  0  0  0  0  0  0  # atno 3847 bound_to 1247
  -13.3446  -25.3517  -39.1892 H   0  0  0  0  0  0  0  0  0  0  0  0  # atno 4507 bound_to 1931
   -2.5860  -33.9722  -36.7660 H   0  0  0  0  0  0  0  0  0  0  0  0  # atno 4531 bound_to 1957
   -2.6589  -30.0877  -29.0516 LP  0  0  0  0  0  0  0  0  0  0  0  0  # atno 5201 bound_to 925 
   -2.3270  -30.0861  -30.6505 LP  0  0  0  0  0  0  0  0  0  0  0  0  # atno 5202 bound_to 925 
   -9.2786  -36.3288  -33.3770 LP  0  0  0  0  0  0  0  0  0  0  0  0  # atno 5205 bound_to 1176
  -10.1981  -37.2951  -32.4349 LP  0  0  0  0  0  0  0  0  0  0  0  0  # atno 5206 bound_to 1176
   -2.6932  -32.3492  -36.7151 LP  0  0  0  0  0  0  0  0  0  0  0  0  # atno 5213 bound_to 1957
   -1.2544  -33.0667  -37.0011 LP  0  0  0  0  0  0  0  0  0  0  0  0  # atno 5214 bound_to 1957
  -14.9601  -27.2577  -37.9051 LP  0  0  0  0  0  0  0  0  0  0  0  0  # atno 5227 bound_to 1247
  -14.5610  -28.7826  -37.4784 LP  0  0  0  0  0  0  0  0  0  0  0  0  # atno 5228 bound_to 1247
  -13.4182  -24.3703  -40.4852 LP  0  0  0  0  0  0  0  0  0  0  0  0  # atno 5245 bound_to 1931
  -12.4300  -24.0067  -39.2370 LP  0  0  0  0  0  0  0  0  0  0  0  0  # atno 5246 bound_to 1931
  -11.3553  -22.2900  -30.7727 LP  0  0  0  0  0  0  0  0  0  0  0  0  # atno 5265 bound_to 1070
  -12.7948  -22.9984  -30.4683 LP  0  0  0  0  0  0  0  0  0  0  0  0  # atno 5266 bound_to 1070

$$$$
EZ_12|Lisa_paper2_min|sdf|1|dock10
  -GOLD-  10202014243D 1   1.00000     0.00000

 63 66  0  0  0  0  0  0  0  0  1 V2000
   -4.0777  -31.7177  -34.9033 C   0  0  0  0  0  0  0  0  0  0  0  0
   -4.9560  -32.7339  -35.2738 C   0  0  0  0  0  0  0  0  0  0  0  0
   -4.5595  -30.4664  -34.5081 C   0  0  0  0  0  0  0  0  0  0  0  0
   -6.3410  -32.5350  -35.2617 C   0  0  0  0  0  0  0  0  0  0  0  0
  -12.3370  -25.9176  -36.2360 C   0  0  0  0  0  0  0  0  0  0  0  0
  -18.9971  -25.2156  -37.2787 C   0  0  0  0  0  0  0  0  0  0  0  0
  -11.0003  -26.2907  -36.0955 C   0  0  0  0  0  0  0  0  0  0  0  0
  -19.9673  -24.6859  -38.1294 C   0  0  0  0  0  0  0  0  0  0  0  0
  -11.6713  -28.1950  -34.7686 C   0  0  0  0  0  0  0  0  0  0  0  0
  -17.2661  -24.1778  -38.6066 C   0  0  0  0  0  0  0  0  0  0  0  0
  -13.0080  -27.8218  -34.9089 C   0  0  0  0  0  0  0  0  0  0  0  0
   -5.9488  -30.2493  -34.4904 C   0  0  0  0  0  0  0  0  0  0  0  0
   -6.8160  -31.2768  -34.8639 C   0  0  0  0  0  0  0  0  0  0  0  0
  -17.6465  -24.9614  -37.5172 C   0  0  0  0  0  0  0  0  0  0  0  0
  -13.3408  -26.6832  -35.6426 C   0  0  0  0  0  0  0  0  0  0  0  0
  -10.6674  -27.4293  -35.3618 C   0  0  0  0  0  0  0  0  0  0  0  0
  -19.5869  -23.9023  -39.2188 C   0  0  0  0  0  0  0  0  0  0  0  0
  -18.2362  -23.6482  -39.4574 C   0  0  0  0  0  0  0  0  0  0  0  0
   -7.9066  -29.4382  -34.2984 C   0  0  0  0  0  0  0  0  0  0  0  0
   -9.3094  -31.3708  -34.9915 C   0  0  0  0  0  0  0  0  0  0  0  0
  -15.3108  -25.7520  -36.9354 C   0  0  0  0  0  0  0  0  0  0  0  0
  -14.0620  -28.6608  -34.2623 C   0  0  0  0  0  0  0  0  0  0  0  0
   -9.6706  -34.9745  -35.4950 C   0  0  0  0  0  0  0  0  0  0  0  0
  -10.3256  -33.5159  -33.5577 C   0  0  0  0  0  0  0  0  0  0  0  0
  -11.4004  -33.1721  -35.8015 C   0  0  0  0  0  0  0  0  0  0  0  0
   -9.0066  -28.4845  -34.0261 C   0  0  0  0  0  0  0  0  0  0  0  0
  -10.1217  -33.5778  -35.0700 C   0  0  0  0  0  0  0  0  0  0  0  0
   -6.6428  -29.1213  -34.1447 N   0  0  0  0  0  0  0  0  0  0  0  0
   -8.0894  -30.7353  -34.7341 N   0  0  0  0  0  0  0  0  0  0  0  0
  -16.6627  -25.4984  -36.6536 N   0  0  0  0  0  0  0  0  0  0  0  0
  -14.6735  -26.2919  -35.7930 N   0  0  0  0  0  0  0  0  0  0  0  0
  -10.3722  -30.7912  -34.8410 O   0  0  0  0  0  0  0  0  0  0  0  0
  -14.7581  -25.5394  -38.0098 O   0  0  0  0  0  0  0  0  0  0  0  0
   -9.3560  -27.7957  -35.2245 O   0  0  0  0  0  0  0  0  0  0  0  0
   -9.0900  -32.6448  -35.4042 O   0  0  0  0  0  0  0  0  0  0  0  0
  -20.8357  -23.2774  -40.2378 Cl  0  0  0  0  0  0  0  0  0  0  0  0
  -17.7024  -22.6868  -40.7915 Cl  0  0  0  0  0  0  0  0  0  0  0  0
   -3.0063  -31.8982  -34.9216 H   0  0  0  0  0  0  0  0  0  0  0  0
   -4.5593  -33.6993  -35.5784 H   0  0  0  0  0  0  0  0  0  0  0  0
   -3.8692  -29.6792  -34.2212 H   0  0  0  0  0  0  0  0  0  0  0  0
   -7.0028  -33.3415  -35.5545 H   0  0  0  0  0  0  0  0  0  0  0  0
  -12.5842  -25.0274  -36.8092 H   0  0  0  0  0  0  0  0  0  0  0  0
  -19.3043  -25.8237  -36.4317 H   0  0  0  0  0  0  0  0  0  0  0  0
  -10.2229  -25.6905  -36.5604 H   0  0  0  0  0  0  0  0  0  0  0  0
  -21.0153  -24.8930  -37.9274 H   0  0  0  0  0  0  0  0  0  0  0  0
  -11.4086  -29.0818  -34.1969 H   0  0  0  0  0  0  0  0  0  0  0  0
  -16.2108  -23.9842  -38.7883 H   0  0  0  0  0  0  0  0  0  0  0  0
  -14.2598  -28.3035  -33.2454 H   0  0  0  0  0  0  0  0  0  0  0  0
  -14.9979  -28.6293  -34.8330 H   0  0  0  0  0  0  0  0  0  0  0  0
  -13.7540  -29.7122  -34.2106 H   0  0  0  0  0  0  0  0  0  0  0  0
   -9.5233  -35.0230  -36.5798 H   0  0  0  0  0  0  0  0  0  0  0  0
   -8.7358  -35.2633  -35.0037 H   0  0  0  0  0  0  0  0  0  0  0  0
  -10.4343  -35.7226  -35.2530 H   0  0  0  0  0  0  0  0  0  0  0  0
  -10.6494  -32.5156  -33.2483 H   0  0  0  0  0  0  0  0  0  0  0  0
   -9.3863  -33.7137  -33.0288 H   0  0  0  0  0  0  0  0  0  0  0  0
  -11.0727  -34.2418  -33.2207 H   0  0  0  0  0  0  0  0  0  0  0  0
  -11.7242  -32.1703  -35.4968 H   0  0  0  0  0  0  0  0  0  0  0  0
  -11.2619  -33.1751  -36.8876 H   0  0  0  0  0  0  0  0  0  0  0  0
  -12.2237  -33.8518  -35.5536 H   0  0  0  0  0  0  0  0  0  0  0  0
   -9.9079  -28.9938  -33.6472 H   0  0  0  0  0  0  0  0  0  0  0  0
   -8.7190  -27.7368  -33.2688 H   0  0  0  0  0  0  0  0  0  0  0  0
  -16.9729  -25.7289  -35.7131 H   0  0  0  0  0  0  0  0  0  0  0  0
  -15.2783  -26.4077  -34.9740 H   0  0  0  0  0  0  0  0  0  0  0  0
  1  2  2  0  0  0  0
  1  3  1  0  0  0  0
  2  4  1  0  0  0  0
  3 12  2  0  0  0  0
  4 13  2  0  0  0  0
  5  7  1  0  0  0  0
  5 15  2  0  0  0  0
  6  8  1  0  0  0  0
  6 14  2  0  0  0  0
  7 16  2  0  0  0  0
  8 17  2  0  0  0  0
  9 11  2  0  0  0  0
  9 16  1  0  0  0  0
 10 14  1  0  0  0  0
 10 18  2  0  0  0  0
 11 15  1  0  0  0  0
 11 22  1  0  0  0  0
 12 13  1  0  0  0  0
 12 28  1  0  0  0  0
 13 29  1  0  0  0  0
 14 30  1  0  0  0  0
 15 31  1  0  0  0  0
 16 34  1  0  0  0  0
 17 18  1  0  0  0  0
 17 36  1  0  0  0  0
 18 37  1  0  0  0  0
 19 26  1  0  0  0  0
 19 28  2  0  0  0  0
 19 29  1  0  0  0  0
 20 29  1  0  0  0  0
 20 32  2  0  0  0  0
 20 35  1  0  0  0  0
 21 30  1  0  0  0  0
 21 31  1  0  0  0  0
 21 33  2  0  0  0  0
 23 27  1  0  0  0  0
 24 27  1  0  0  0  0
 25 27  1  0  0  0  0
 26 34  1  0  0  0  0
 27 35  1  0  0  0  0
  1 38  1  0  0  0  0
  2 39  1  0  0  0  0
  3 40  1  0  0  0  0
  4 41  1  0  0  0  0
  5 42  1  0  0  0  0
  6 43  1  0  0  0  0
  7 44  1  0  0  0  0
  8 45  1  0  0  0  0
  9 46  1  0  0  0  0
 10 47  1  0  0  0  0
 22 48  1  0  0  0  0
 22 49  1  0  0  0  0
 22 50  1  0  0  0  0
 23 51  1  0  0  0  0
 23 52  1  0  0  0  0
 23 53  1  0  0  0  0
 24 54  1  0  0  0  0
 24 55  1  0  0  0  0
 24 56  1  0  0  0  0
 25 57  1  0  0  0  0
 25 58  1  0  0  0  0
 25 59  1  0  0  0  0
 26 60  1  0  0  0  0
 26 61  1  0  0  0  0
 30 62  1  0  0  0  0
 31 63  1  0  0  0  0
M  END
> <SourceTag>
EZ_12

> <Clean Energy>
28.3989

> <Activity_sEH>
0.7

> <Activity_FLAP>
3.7

> <Gold.Version>
5.2

> <Gold.Id.Protein>
6HGV|6HGV_protein|mol2

> <Gold.PLP.Fitness>
87.2080

> <Gold.PLP.PLP>
-83.7902

> <Gold.PLP.part.hbond>
-7.2206

> <Gold.PLP.part.metal>
0.0000

> <Gold.PLP.part.buried>
6.3354

> <Gold.PLP.part.nonpolar>
-83.7440

> <Gold.PLP.part.repulsive>
0.1492

> <Gold.PLP.ligand.clash>
0.0000

> <Gold.PLP.ligand.torsion>
1.7518

> <Gold.PLP.Chemscore.Hbond>
1.4107

> <Gold.PLP.Chemscore.CHOScore>
0.0000

> <Gold.PLP.Chemscore.Metal>
0.0000

> <Gold.Chemscore.Hbonds>
donor molecule, donor type, donor heavy atom, donor atom, acceptor molecule, acceptor atom, score
      P1  H  1256  3854       L1    32  0.46
      P1  H  1931  4507       L1    33  0.95

> <Gold.PLP.Chemscore.Internal.Correction>
0.4579

> <Gold.Protein.RotatedTorsions>
[ 3525  925  924  922 ] final -171.84 input   59.99 | X-H torsion
[ 3781 1176 1175 1172 ] final  112.05 input   60.00 | X-H torsion
[ 4531 1957 1955 1953 ] final  -70.62 input   60.00 | X-H torsion
[ 3847 1247 1246 1244 ] final  128.07 input   60.00 | X-H torsion
[ 4507 1931 1930 1928 ] final   -5.74 input   60.00 | X-H torsion
[ 3677 1070 1069 1066 ] final -167.41 input   60.00 | X-H torsion

> <Gold.Protein.ActiveResidues>
 GLY266  PHE267  PRO268  GLU269  MET310  HIS334  ASP335  TRP336  GLY337  GLY338 
 MET339  LEU340  TRP342  TYR343  LEU358  ASN359  THR360  PRO361  ILE363  ALA365 
 MET369  SER370  PRO371  LEU372  GLU373  SER374  ILE375  LYS376  ALA377  ASN378 
 VAL380  PHE381  ASP382  TYR383  GLN384  PHE387  GLN388  LEU397  SER407  LEU408 
 PHE409  ARG410  LEU417  MET419  LEU428  PHE429  PHE459  TRP465  TYR466  ASN468 
 MET469  GLU470  ASN472  TRP473  ALA476  ASP496  PHE497  VAL498  LEU499  MET503 
 HIS524  TRP525 

> <Gold.Protein.RotatedAtoms>
   -2.3110  -30.2143  -29.2979 H   0  0  0  0  0  0  0  0  0  0  0  0  # atno 3525 bound_to 925 
  -11.0983  -22.9460  -31.2696 H   0  0  0  0  0  0  0  0  0  0  0  0  # atno 3677 bound_to 1070
   -9.9484  -37.1540  -32.3747 H   0  0  0  0  0  0  0  0  0  0  0  0  # atno 3781 bound_to 1176
  -14.3101  -28.1669  -37.8151 H   0  0  0  0  0  0  0  0  0  0  0  0  # atno 3847 bound_to 1247
  -13.3161  -25.3404  -39.1542 H   0  0  0  0  0  0  0  0  0  0  0  0  # atno 4507 bound_to 1931
   -1.8175  -32.2694  -36.8826 H   0  0  0  0  0  0  0  0  0  0  0  0  # atno 4531 bound_to 1957
   -2.6846  -29.9117  -30.8525 LP  0  0  0  0  0  0  0  0  0  0  0  0  # atno 5201 bound_to 925 
   -3.7516  -29.5548  -29.6690 LP  0  0  0  0  0  0  0  0  0  0  0  0  # atno 5202 bound_to 925 
  -10.7697  -37.1728  -33.7794 LP  0  0  0  0  0  0  0  0  0  0  0  0  # atno 5205 bound_to 1176
   -9.3933  -36.3043  -33.6466 LP  0  0  0  0  0  0  0  0  0  0  0  0  # atno 5206 bound_to 1176
   -1.6232  -33.8839  -36.9451 LP  0  0  0  0  0  0  0  0  0  0  0  0  # atno 5213 bound_to 1957
   -3.0983  -33.2468  -36.6536 LP  0  0  0  0  0  0  0  0  0  0  0  0  # atno 5214 bound_to 1957
  -15.6060  -28.8002  -37.0615 LP  0  0  0  0  0  0  0  0  0  0  0  0  # atno 5227 bound_to 1247
  -15.6545  -27.2694  -37.6280 LP  0  0  0  0  0  0  0  0  0  0  0  0  # atno 5228 bound_to 1247
  -13.4441  -24.4092  -40.4826 LP  0  0  0  0  0  0  0  0  0  0  0  0  # atno 5245 bound_to 1931
  -12.4328  -23.9791  -39.2748 LP  0  0  0  0  0  0  0  0  0  0  0  0  # atno 5246 bound_to 1931
  -12.2753  -22.3192  -30.3370 LP  0  0  0  0  0  0  0  0  0  0  0  0  # atno 5265 bound_to 1070
  -12.4864  -23.7687  -31.0587 LP  0  0  0  0  0  0  0  0  0  0  0  0  # atno 5266 bound_to 1070

$$$$
EZ_12|Lisa_paper2_min|sdf|1|dock4
  -GOLD-  10202014243D 1   1.00000     0.00000

 63 66  0  0  0  0  0  0  0  0  1 V2000
   -4.1967  -31.7185  -35.3616 C   0  0  0  0  0  0  0  0  0  0  0  0
   -5.1273  -32.7517  -35.4508 C   0  0  0  0  0  0  0  0  0  0  0  0
   -4.5980  -30.4238  -35.0197 C   0  0  0  0  0  0  0  0  0  0  0  0
   -6.4859  -32.5270  -35.2019 C   0  0  0  0  0  0  0  0  0  0  0  0
  -12.3768  -25.9863  -36.1659 C   0  0  0  0  0  0  0  0  0  0  0  0
  -19.0206  -25.3438  -37.1153 C   0  0  0  0  0  0  0  0  0  0  0  0
  -11.0137  -26.2193  -35.9831 C   0  0  0  0  0  0  0  0  0  0  0  0
  -19.9910  -24.7213  -37.9004 C   0  0  0  0  0  0  0  0  0  0  0  0
  -11.5242  -28.2133  -34.7181 C   0  0  0  0  0  0  0  0  0  0  0  0
  -17.2942  -24.4980  -38.5785 C   0  0  0  0  0  0  0  0  0  0  0  0
  -12.8873  -27.9802  -34.9006 C   0  0  0  0  0  0  0  0  0  0  0  0
   -5.9596  -30.1804  -34.7665 C   0  0  0  0  0  0  0  0  0  0  0  0
   -6.8798  -31.2253  -34.8596 C   0  0  0  0  0  0  0  0  0  0  0  0
  -17.6721  -25.2321  -37.4543 C   0  0  0  0  0  0  0  0  0  0  0  0
  -13.3135  -26.8667  -35.6245 C   0  0  0  0  0  0  0  0  0  0  0  0
  -10.5874  -27.3328  -35.2592 C   0  0  0  0  0  0  0  0  0  0  0  0
  -19.6130  -23.9872  -39.0247 C   0  0  0  0  0  0  0  0  0  0  0  0
  -18.2645  -23.8756  -39.3637 C   0  0  0  0  0  0  0  0  0  0  0  0
   -7.8480  -29.3174  -34.3007 C   0  0  0  0  0  0  0  0  0  0  0  0
   -9.3528  -31.2861  -34.5091 C   0  0  0  0  0  0  0  0  0  0  0  0
  -15.2960  -25.8614  -36.8405 C   0  0  0  0  0  0  0  0  0  0  0  0
  -13.8680  -28.9401  -34.3093 C   0  0  0  0  0  0  0  0  0  0  0  0
  -10.9492  -33.1883  -33.2639 C   0  0  0  0  0  0  0  0  0  0  0  0
  -11.4027  -32.8974  -35.7173 C   0  0  0  0  0  0  0  0  0  0  0  0
  -10.0430  -34.8528  -34.9200 C   0  0  0  0  0  0  0  0  0  0  0  0
   -8.8790  -28.3201  -33.9317 C   0  0  0  0  0  0  0  0  0  0  0  0
  -10.3991  -33.3872  -34.6754 C   0  0  0  0  0  0  0  0  0  0  0  0
   -6.5784  -29.0095  -34.4203 N   0  0  0  0  0  0  0  0  0  0  0  0
   -8.1073  -30.6497  -34.5533 N   0  0  0  0  0  0  0  0  0  0  0  0
  -16.6880  -25.8631  -36.6572 N   0  0  0  0  0  0  0  0  0  0  0  0
  -14.6743  -26.6150  -35.8167 N   0  0  0  0  0  0  0  0  0  0  0  0
  -10.3695  -30.6742  -34.2259 O   0  0  0  0  0  0  0  0  0  0  0  0
  -14.7009  -25.2932  -37.7506 O   0  0  0  0  0  0  0  0  0  0  0  0
   -9.2500  -27.5617  -35.0806 O   0  0  0  0  0  0  0  0  0  0  0  0
   -9.2127  -32.6003  -34.8167 O   0  0  0  0  0  0  0  0  0  0  0  0
  -20.8623  -23.2422  -39.9586 Cl  0  0  0  0  0  0  0  0  0  0  0  0
  -17.7341  -22.9820  -40.7454 Cl  0  0  0  0  0  0  0  0  0  0  0  0
   -3.1475  -31.9198  -35.5598 H   0  0  0  0  0  0  0  0  0  0  0  0
   -4.7932  -33.7510  -35.7189 H   0  0  0  0  0  0  0  0  0  0  0  0
   -3.8673  -29.6237  -34.9525 H   0  0  0  0  0  0  0  0  0  0  0  0
   -7.1894  -33.3475  -35.2781 H   0  0  0  0  0  0  0  0  0  0  0  0
  -12.6971  -25.1144  -36.7310 H   0  0  0  0  0  0  0  0  0  0  0  0
  -19.3257  -25.9121  -36.2404 H   0  0  0  0  0  0  0  0  0  0  0  0
  -10.2889  -25.5300  -36.4077 H   0  0  0  0  0  0  0  0  0  0  0  0
  -21.0370  -24.8177  -37.6203 H   0  0  0  0  0  0  0  0  0  0  0  0
  -11.1887  -29.0802  -34.1538 H   0  0  0  0  0  0  0  0  0  0  0  0
  -16.2407  -24.4156  -38.8387 H   0  0  0  0  0  0  0  0  0  0  0  0
  -14.1378  -28.6289  -33.2938 H   0  0  0  0  0  0  0  0  0  0  0  0
  -14.7816  -28.9947  -34.9135 H   0  0  0  0  0  0  0  0  0  0  0  0
  -13.4520  -29.9541  -34.2661 H   0  0  0  0  0  0  0  0  0  0  0  0
  -10.2319  -33.5387  -32.5132 H   0  0  0  0  0  0  0  0  0  0  0  0
  -11.1759  -32.1360  -33.0638 H   0  0  0  0  0  0  0  0  0  0  0  0
  -11.8637  -33.7738  -33.1145 H   0  0  0  0  0  0  0  0  0  0  0  0
  -11.0121  -33.0382  -36.7316 H   0  0  0  0  0  0  0  0  0  0  0  0
  -11.5893  -31.8233  -35.6046 H   0  0  0  0  0  0  0  0  0  0  0  0
  -12.3583  -33.4256  -35.6373 H   0  0  0  0  0  0  0  0  0  0  0  0
   -9.6483  -34.9957  -35.9325 H   0  0  0  0  0  0  0  0  0  0  0  0
   -9.2960  -35.2112  -34.2042 H   0  0  0  0  0  0  0  0  0  0  0  0
  -10.9326  -35.4882  -34.8424 H   0  0  0  0  0  0  0  0  0  0  0  0
   -9.7867  -28.7976  -33.5273 H   0  0  0  0  0  0  0  0  0  0  0  0
   -8.5132  -27.6228  -33.1603 H   0  0  0  0  0  0  0  0  0  0  0  0
  -17.0311  -26.3816  -35.8526 H   0  0  0  0  0  0  0  0  0  0  0  0
  -15.3157  -27.0264  -35.1316 H   0  0  0  0  0  0  0  0  0  0  0  0
  1  2  2  0  0  0  0
  1  3  1  0  0  0  0
  2  4  1  0  0  0  0
  3 12  2  0  0  0  0
  4 13  2  0  0  0  0
  5  7  1  0  0  0  0
  5 15  2  0  0  0  0
  6  8  1  0  0  0  0
  6 14  2  0  0  0  0
  7 16  2  0  0  0  0
  8 17  2  0  0  0  0
  9 11  2  0  0  0  0
  9 16  1  0  0  0  0
 10 14  1  0  0  0  0
 10 18  2  0  0  0  0
 11 15  1  0  0  0  0
 11 22  1  0  0  0  0
 12 13  1  0  0  0  0
 12 28  1  0  0  0  0
 13 29  1  0  0  0  0
 14 30  1  0  0  0  0
 15 31  1  0  0  0  0
 16 34  1  0  0  0  0
 17 18  1  0  0  0  0
 17 36  1  0  0  0  0
 18 37  1  0  0  0  0
 19 26  1  0  0  0  0
 19 28  2  0  0  0  0
 19 29  1  0  0  0  0
 20 29  1  0  0  0  0
 20 32  2  0  0  0  0
 20 35  1  0  0  0  0
 21 30  1  0  0  0  0
 21 31  1  0  0  0  0
 21 33  2  0  0  0  0
 23 27  1  0  0  0  0
 24 27  1  0  0  0  0
 25 27  1  0  0  0  0
 26 34  1  0  0  0  0
 27 35  1  0  0  0  0
  1 38  1  0  0  0  0
  2 39  1  0  0  0  0
  3 40  1  0  0  0  0
  4 41  1  0  0  0  0
  5 42  1  0  0  0  0
  6 43  1  0  0  0  0
  7 44  1  0  0  0  0
  8 45  1  0  0  0  0
  9 46  1  0  0  0  0
 10 47  1  0  0  0  0
 22 48  1  0  0  0  0
 22 49  1  0  0  0  0
 22 50  1  0  0  0  0
 23 51  1  0  0  0  0
 23 52  1  0  0  0  0
 23 53  1  0  0  0  0
 24 54  1  0  0  0  0
 24 55  1  0  0  0  0
 24 56  1  0  0  0  0
 25 57  1  0  0  0  0
 25 58  1  0  0  0  0
 25 59  1  0  0  0  0
 26 60  1  0  0  0  0
 26 61  1  0  0  0  0
 30 62  1  0  0  0  0
 31 63  1  0  0  0  0
M  END
> <SourceTag>
EZ_12

> <Clean Energy>
28.3989

> <Activity_sEH>
0.7

> <Activity_FLAP>
3.7

> <Gold.Version>
5.2

> <Gold.Id.Protein>
6HGV|6HGV_protein|mol2

> <Gold.PLP.Fitness>
87.1659

> <Gold.PLP.PLP>
-84.8460

> <Gold.PLP.part.hbond>
-8.0000

> <Gold.PLP.part.metal>
0.0000

> <Gold.PLP.part.buried>
11.8155

> <Gold.PLP.part.nonpolar>
-89.4253

> <Gold.PLP.part.repulsive>
0.1448

> <Gold.PLP.ligand.clash>
0.0000

> <Gold.PLP.ligand.torsion>
1.1423

> <Gold.PLP.Chemscore.Hbond>
0.8972

> <Gold.PLP.Chemscore.CHOScore>
0.0000

> <Gold.PLP.Chemscore.Metal>
0.0000

> <Gold.Chemscore.Hbonds>
donor molecule, donor type, donor heavy atom, donor atom, acceptor molecule, acceptor atom, score
      P1  H  1931  4507       L1    33  0.90

> <Gold.PLP.Chemscore.Internal.Correction>
0.4657

> <Gold.Protein.RotatedTorsions>
[ 3525  925  924  922 ] final -116.73 input   59.99 | X-H torsion
[ 3781 1176 1175 1172 ] final  124.21 input   60.00 | X-H torsion
[ 4531 1957 1955 1953 ] final  121.92 input   60.00 | X-H torsion
[ 3847 1247 1246 1244 ] final  151.35 input   60.00 | X-H torsion
[ 4507 1931 1930 1928 ] final    5.11 input   60.00 | X-H torsion
[ 3677 1070 1069 1066 ] final -120.90 input   60.00 | X-H torsion

> <Gold.Protein.ActiveResidues>
 GLY266  PHE267  PRO268  GLU269  MET310  HIS334  ASP335  TRP336  GLY337  GLY338 
 MET339  LEU340  TRP342  TYR343  LEU358  ASN359  THR360  PRO361  ILE363  ALA365 
 MET369  SER370  PRO371  LEU372  GLU373  SER374  ILE375  LYS376  ALA377  ASN378 
 VAL380  PHE381  ASP382  TYR383  GLN384  PHE387  GLN388  LEU397  SER407  LEU408 
 PHE409  ARG410  LEU417  MET419  LEU428  PHE429  PHE459  TRP465  TYR466  ASN468 
 MET469  GLU470  ASN472  TRP473  ALA476  ASP496  PHE497  VAL498  LEU499  MET503 
 HIS524  TRP525 

> <Gold.Protein.RotatedAtoms>
   -3.0708  -29.9089  -29.0154 H   0  0  0  0  0  0  0  0  0  0  0  0  # atno 3525 bound_to 925 
  -11.4519  -23.5695  -31.4509 H   0  0  0  0  0  0  0  0  0  0  0  0  # atno 3677 bound_to 1070
   -9.7842  -37.0430  -32.3786 H   0  0  0  0  0  0  0  0  0  0  0  0  # atno 3781 bound_to 1176
  -14.3927  -27.8129  -37.9181 H   0  0  0  0  0  0  0  0  0  0  0  0  # atno 3847 bound_to 1247
  -13.2025  -25.2804  -39.0325 H   0  0  0  0  0  0  0  0  0  0  0  0  # atno 4507 bound_to 1931
   -2.3484  -34.0520  -36.8125 H   0  0  0  0  0  0  0  0  0  0  0  0  # atno 4531 bound_to 1957
   -2.0992  -30.2190  -30.2834 LP  0  0  0  0  0  0  0  0  0  0  0  0  # atno 5201 bound_to 925 
   -3.5719  -29.5551  -30.5226 LP  0  0  0  0  0  0  0  0  0  0  0  0  # atno 5202 bound_to 925 
  -10.8208  -37.2695  -33.6123 LP  0  0  0  0  0  0  0  0  0  0  0  0  # atno 5205 bound_to 1176
   -9.5075  -36.3194  -33.8096 LP  0  0  0  0  0  0  0  0  0  0  0  0  # atno 5206 bound_to 1176
   -2.8818  -32.5201  -36.6822 LP  0  0  0  0  0  0  0  0  0  0  0  0  # atno 5213 bound_to 1957
   -1.3050  -32.8155  -36.9871 LP  0  0  0  0  0  0  0  0  0  0  0  0  # atno 5214 bound_to 1957
  -15.2635  -28.9462  -37.1401 LP  0  0  0  0  0  0  0  0  0  0  0  0  # atno 5227 bound_to 1247
  -15.9139  -27.4799  -37.4457 LP  0  0  0  0  0  0  0  0  0  0  0  0  # atno 5228 bound_to 1247
  -13.5337  -24.5606  -40.4539 LP  0  0  0  0  0  0  0  0  0  0  0  0  # atno 5245 bound_to 1931
  -12.4576  -23.8882  -39.4261 LP  0  0  0  0  0  0  0  0  0  0  0  0  # atno 5246 bound_to 1931
  -11.5909  -22.1896  -30.5997 LP  0  0  0  0  0  0  0  0  0  0  0  0  # atno 5265 bound_to 1070
  -12.8148  -23.2705  -30.6135 LP  0  0  0  0  0  0  0  0  0  0  0  0  # atno 5266 bound_to 1070

$$$$
EZ_12|Lisa_paper2_min|sdf|1|dock2
  -GOLD-  10202014243D 1   1.00000     0.00000

 63 66  0  0  0  0  0  0  0  0  1 V2000
   -4.3423  -31.5876  -35.5268 C   0  0  0  0  0  0  0  0  0  0  0  0
   -5.2428  -32.6505  -35.4978 C   0  0  0  0  0  0  0  0  0  0  0  0
   -4.7553  -30.2929  -35.1995 C   0  0  0  0  0  0  0  0  0  0  0  0
   -6.5820  -32.4563  -35.1416 C   0  0  0  0  0  0  0  0  0  0  0  0
  -12.4388  -25.8034  -35.9956 C   0  0  0  0  0  0  0  0  0  0  0  0
  -19.0575  -25.2300  -37.1916 C   0  0  0  0  0  0  0  0  0  0  0  0
  -11.0804  -26.0378  -35.7821 C   0  0  0  0  0  0  0  0  0  0  0  0
  -20.0121  -24.6337  -38.0155 C   0  0  0  0  0  0  0  0  0  0  0  0
  -11.6120  -28.1302  -34.6974 C   0  0  0  0  0  0  0  0  0  0  0  0
  -17.3047  -24.4597  -38.6651 C   0  0  0  0  0  0  0  0  0  0  0  0
  -12.9703  -27.8957  -34.9107 C   0  0  0  0  0  0  0  0  0  0  0  0
   -6.0979  -30.0799  -34.8395 C   0  0  0  0  0  0  0  0  0  0  0  0
   -6.9880  -31.1543  -34.8147 C   0  0  0  0  0  0  0  0  0  0  0  0
  -17.7038  -25.1429  -37.5164 C   0  0  0  0  0  0  0  0  0  0  0  0
  -13.3837  -26.7323  -35.5597 C   0  0  0  0  0  0  0  0  0  0  0  0
  -10.6670  -27.2011  -35.1330 C   0  0  0  0  0  0  0  0  0  0  0  0
  -19.6130  -23.9505  -39.1642 C   0  0  0  0  0  0  0  0  0  0  0  0
  -18.2593  -23.8635  -39.4891 C   0  0  0  0  0  0  0  0  0  0  0  0
   -7.9673  -29.2553  -34.2453 C   0  0  0  0  0  0  0  0  0  0  0  0
   -9.4190  -31.2741  -34.2513 C   0  0  0  0  0  0  0  0  0  0  0  0
  -15.3414  -25.7640  -36.8440 C   0  0  0  0  0  0  0  0  0  0  0  0
  -13.9600  -28.9082  -34.4329 C   0  0  0  0  0  0  0  0  0  0  0  0
  -11.4006  -32.7931  -35.5992 C   0  0  0  0  0  0  0  0  0  0  0  0
  -10.0973  -34.8060  -34.8513 C   0  0  0  0  0  0  0  0  0  0  0  0
  -11.1130  -33.2687  -33.1445 C   0  0  0  0  0  0  0  0  0  0  0  0
   -8.9954  -28.2751  -33.8260 C   0  0  0  0  0  0  0  0  0  0  0  0
  -10.4707  -33.3609  -34.5279 C   0  0  0  0  0  0  0  0  0  0  0  0
   -6.7231  -28.9151  -34.4846 N   0  0  0  0  0  0  0  0  0  0  0  0
   -8.2032  -30.6035  -34.4255 N   0  0  0  0  0  0  0  0  0  0  0  0
  -16.7357  -25.7473  -36.6800 N   0  0  0  0  0  0  0  0  0  0  0  0
  -14.7397  -26.4785  -35.7810 N   0  0  0  0  0  0  0  0  0  0  0  0
  -10.4276  -30.6818  -33.9045 O   0  0  0  0  0  0  0  0  0  0  0  0
  -14.7294  -25.2392  -37.7689 O   0  0  0  0  0  0  0  0  0  0  0  0
   -9.3342  -27.4313  -34.9242 O   0  0  0  0  0  0  0  0  0  0  0  0
   -9.2625  -32.5948  -34.5212 O   0  0  0  0  0  0  0  0  0  0  0  0
  -20.8436  -23.2359  -40.1457 Cl  0  0  0  0  0  0  0  0  0  0  0  0
  -17.7030  -23.0329  -40.8996 Cl  0  0  0  0  0  0  0  0  0  0  0  0
   -3.3076  -31.7655  -35.8069 H   0  0  0  0  0  0  0  0  0  0  0  0
   -4.9000  -33.6493  -35.7567 H   0  0  0  0  0  0  0  0  0  0  0  0
   -4.0482  -29.4695  -35.2247 H   0  0  0  0  0  0  0  0  0  0  0  0
   -7.2623  -33.2996  -35.1269 H   0  0  0  0  0  0  0  0  0  0  0  0
  -12.7492  -24.8925  -36.5016 H   0  0  0  0  0  0  0  0  0  0  0  0
  -19.3790  -25.7587  -36.2979 H   0  0  0  0  0  0  0  0  0  0  0  0
  -10.3492  -25.3105  -36.1243 H   0  0  0  0  0  0  0  0  0  0  0  0
  -21.0626  -24.7103  -37.7460 H   0  0  0  0  0  0  0  0  0  0  0  0
  -11.2865  -29.0359  -34.1913 H   0  0  0  0  0  0  0  0  0  0  0  0
  -16.2472  -24.3964  -38.9140 H   0  0  0  0  0  0  0  0  0  0  0  0
  -14.2696  -28.6807  -33.4066 H   0  0  0  0  0  0  0  0  0  0  0  0
  -14.8507  -28.9231  -35.0725 H   0  0  0  0  0  0  0  0  0  0  0  0
  -13.5338  -29.9186  -34.4545 H   0  0  0  0  0  0  0  0  0  0  0  0
  -11.6709  -31.7561  -35.3707 H   0  0  0  0  0  0  0  0  0  0  0  0
  -10.9378  -32.8213  -36.5911 H   0  0  0  0  0  0  0  0  0  0  0  0
  -12.3403  -33.3558  -35.6396 H   0  0  0  0  0  0  0  0  0  0  0  0
   -9.4302  -35.2174  -34.0852 H   0  0  0  0  0  0  0  0  0  0  0  0
   -9.5515  -34.8651  -35.7999 H   0  0  0  0  0  0  0  0  0  0  0  0
  -10.9827  -35.4463  -34.9203 H   0  0  0  0  0  0  0  0  0  0  0  0
  -10.4462  -33.6759  -32.3758 H   0  0  0  0  0  0  0  0  0  0  0  0
  -11.3541  -32.2340  -32.8800 H   0  0  0  0  0  0  0  0  0  0  0  0
  -12.0332  -33.8625  -33.1017 H   0  0  0  0  0  0  0  0  0  0  0  0
   -9.9164  -28.7696  -33.4758 H   0  0  0  0  0  0  0  0  0  0  0  0
   -8.6387  -27.6396  -32.9989 H   0  0  0  0  0  0  0  0  0  0  0  0
  -17.0938  -26.2289  -35.8592 H   0  0  0  0  0  0  0  0  0  0  0  0
  -15.3935  -26.8559  -35.0882 H   0  0  0  0  0  0  0  0  0  0  0  0
  1  2  2  0  0  0  0
  1  3  1  0  0  0  0
  2  4  1  0  0  0  0
  3 12  2  0  0  0  0
  4 13  2  0  0  0  0
  5  7  1  0  0  0  0
  5 15  2  0  0  0  0
  6  8  1  0  0  0  0
  6 14  2  0  0  0  0
  7 16  2  0  0  0  0
  8 17  2  0  0  0  0
  9 11  2  0  0  0  0
  9 16  1  0  0  0  0
 10 14  1  0  0  0  0
 10 18  2  0  0  0  0
 11 15  1  0  0  0  0
 11 22  1  0  0  0  0
 12 13  1  0  0  0  0
 12 28  1  0  0  0  0
 13 29  1  0  0  0  0
 14 30  1  0  0  0  0
 15 31  1  0  0  0  0
 16 34  1  0  0  0  0
 17 18  1  0  0  0  0
 17 36  1  0  0  0  0
 18 37  1  0  0  0  0
 19 26  1  0  0  0  0
 19 28  2  0  0  0  0
 19 29  1  0  0  0  0
 20 29  1  0  0  0  0
 20 32  2  0  0  0  0
 20 35  1  0  0  0  0
 21 30  1  0  0  0  0
 21 31  1  0  0  0  0
 21 33  2  0  0  0  0
 23 27  1  0  0  0  0
 24 27  1  0  0  0  0
 25 27  1  0  0  0  0
 26 34  1  0  0  0  0
 27 35  1  0  0  0  0
  1 38  1  0  0  0  0
  2 39  1  0  0  0  0
  3 40  1  0  0  0  0
  4 41  1  0  0  0  0
  5 42  1  0  0  0  0
  6 43  1  0  0  0  0
  7 44  1  0  0  0  0
  8 45  1  0  0  0  0
  9 46  1  0  0  0  0
 10 47  1  0  0  0  0
 22 48  1  0  0  0  0
 22 49  1  0  0  0  0
 22 50  1  0  0  0  0
 23 51  1  0  0  0  0
 23 52  1  0  0  0  0
 23 53  1  0  0  0  0
 24 54  1  0  0  0  0
 24 55  1  0  0  0  0
 24 56  1  0  0  0  0
 25 57  1  0  0  0  0
 25 58  1  0  0  0  0
 25 59  1  0  0  0  0
 26 60  1  0  0  0  0
 26 61  1  0  0  0  0
 30 62  1  0  0  0  0
 31 63  1  0  0  0  0
M  END
> <SourceTag>
EZ_12

> <Clean Energy>
28.3989

> <Activity_sEH>
0.7

> <Activity_FLAP>
3.7

> <Gold.Version>
5.2

> <Gold.Id.Protein>
6HGV|6HGV_protein|mol2

> <Gold.PLP.Fitness>
86.7806

> <Gold.PLP.PLP>
-84.4073

> <Gold.PLP.part.hbond>
-8.0000

> <Gold.PLP.part.metal>
0.0000

> <Gold.PLP.part.buried>
9.2893

> <Gold.PLP.part.nonpolar>
-87.9730

> <Gold.PLP.part.repulsive>
0.1302

> <Gold.PLP.ligand.clash>
0.0000

> <Gold.PLP.ligand.torsion>
1.0410

> <Gold.PLP.Chemscore.Hbond>
0.8828

> <Gold.PLP.Chemscore.CHOScore>
0.0000

> <Gold.PLP.Chemscore.Metal>
0.0000

> <Gold.Chemscore.Hbonds>
donor molecule, donor type, donor heavy atom, donor atom, acceptor molecule, acceptor atom, score
      P1  H  1931  4507       L1    33  0.88

> <Gold.PLP.Chemscore.Internal.Correction>
0.4657

> <Gold.Protein.RotatedTorsions>
[ 3525  925  924  922 ] final -146.89 input   59.99 | X-H torsion
[ 3781 1176 1175 1172 ] final   42.17 input   60.00 | X-H torsion
[ 4531 1957 1955 1953 ] final -126.15 input   60.00 | X-H torsion
[ 3847 1247 1246 1244 ] final  101.79 input   60.00 | X-H torsion
[ 4507 1931 1930 1928 ] final   -1.84 input   60.00 | X-H torsion
[ 3677 1070 1069 1066 ] final   18.15 input   60.00 | X-H torsion

> <Gold.Protein.ActiveResidues>
 GLY266  PHE267  PRO268  GLU269  MET310  HIS334  ASP335  TRP336  GLY337  GLY338 
 MET339  LEU340  TRP342  TYR343  LEU358  ASN359  THR360  PRO361  ILE363  ALA365 
 MET369  SER370  PRO371  LEU372  GLU373  SER374  ILE375  LYS376  ALA377  ASN378 
 VAL380  PHE381  ASP382  TYR383  GLN384  PHE387  GLN388  LEU397  SER407  LEU408 
 PHE409  ARG410  LEU417  MET419  LEU428  PHE429  PHE459  TRP465  TYR466  ASN468 
 MET469  GLU470  ASN472  TRP473  ALA476  ASP496  PHE497  VAL498  LEU499  MET503 
 HIS524  TRP525 

> <Gold.Protein.RotatedAtoms>
   -2.6253  -30.0980  -29.0714 H   0  0  0  0  0  0  0  0  0  0  0  0  # atno 3525 bound_to 925 
  -12.7874  -22.9970  -30.4682 H   0  0  0  0  0  0  0  0  0  0  0  0  # atno 3677 bound_to 1070
  -10.7469  -37.4412  -33.0304 H   0  0  0  0  0  0  0  0  0  0  0  0  # atno 3781 bound_to 1176
  -14.3886  -28.5465  -37.6391 H   0  0  0  0  0  0  0  0  0  0  0  0  # atno 3847 bound_to 1247
  -13.2761  -25.3219  -39.1083 H   0  0  0  0  0  0  0  0  0  0  0  0  # atno 4507 bound_to 1931
   -1.2772  -32.9446  -36.9970 H   0  0  0  0  0  0  0  0  0  0  0  0  # atno 4531 bound_to 1957
   -2.3545  -30.0718  -30.6758 LP  0  0  0  0  0  0  0  0  0  0  0  0  # atno 5201 bound_to 925 
   -3.7653  -29.5118  -30.0738 LP  0  0  0  0  0  0  0  0  0  0  0  0  # atno 5202 bound_to 925 
   -9.9879  -36.5181  -34.1349 LP  0  0  0  0  0  0  0  0  0  0  0  0  # atno 5205 bound_to 1176
   -9.3709  -36.6699  -32.6306 LP  0  0  0  0  0  0  0  0  0  0  0  0  # atno 5206 bound_to 1176
   -2.4753  -34.0253  -36.7855 LP  0  0  0  0  0  0  0  0  0  0  0  0  # atno 5213 bound_to 1957
   -2.7902  -32.4254  -36.6980 LP  0  0  0  0  0  0  0  0  0  0  0  0  # atno 5214 bound_to 1957
  -15.9082  -28.4962  -37.0592 LP  0  0  0  0  0  0  0  0  0  0  0  0  # atno 5227 bound_to 1247
  -15.2733  -27.1911  -37.8076 LP  0  0  0  0  0  0  0  0  0  0  0  0  # atno 5228 bound_to 1247
  -13.4780  -24.4632  -40.4757 LP  0  0  0  0  0  0  0  0  0  0  0  0  # atno 5245 bound_to 1931
  -12.4391  -23.9438  -39.3279 LP  0  0  0  0  0  0  0  0  0  0  0  0  # atno 5246 bound_to 1931
  -11.7074  -23.7452  -31.4283 LP  0  0  0  0  0  0  0  0  0  0  0  0  # atno 5265 bound_to 1070
  -11.3534  -22.2914  -30.7744 LP  0  0  0  0  0  0  0  0  0  0  0  0  # atno 5266 bound_to 1070

$$$$
EZ_12|Lisa_paper2_min|sdf|1|dock8
  -GOLD-  10202014243D 1   1.00000     0.00000

 63 66  0  0  0  0  0  0  0  0  1 V2000
   -3.2994  -32.6398  -33.3141 C   0  0  0  0  0  0  0  0  0  0  0  0
   -4.1924  -33.1489  -32.3735 C   0  0  0  0  0  0  0  0  0  0  0  0
   -3.7336  -31.7542  -34.3047 C   0  0  0  0  0  0  0  0  0  0  0  0
   -5.5451  -32.7911  -32.3906 C   0  0  0  0  0  0  0  0  0  0  0  0
  -11.4572  -27.5560  -36.2351 C   0  0  0  0  0  0  0  0  0  0  0  0
  -17.5062  -25.0024  -36.8199 C   0  0  0  0  0  0  0  0  0  0  0  0
  -10.2201  -28.1791  -36.0712 C   0  0  0  0  0  0  0  0  0  0  0  0
  -18.5501  -24.7239  -37.7021 C   0  0  0  0  0  0  0  0  0  0  0  0
   -9.8979  -26.9923  -33.9916 C   0  0  0  0  0  0  0  0  0  0  0  0
  -15.9111  -24.6809  -38.6058 C   0  0  0  0  0  0  0  0  0  0  0  0
  -11.1350  -26.3690  -34.1556 C   0  0  0  0  0  0  0  0  0  0  0  0
   -5.0899  -31.3844  -34.3366 C   0  0  0  0  0  0  0  0  0  0  0  0
   -5.9723  -31.9023  -33.3877 C   0  0  0  0  0  0  0  0  0  0  0  0
  -16.1867  -24.9808  -37.2717 C   0  0  0  0  0  0  0  0  0  0  0  0
  -11.9146  -26.6509  -35.2773 C   0  0  0  0  0  0  0  0  0  0  0  0
   -9.4404  -27.8973  -34.9495 C   0  0  0  0  0  0  0  0  0  0  0  0
  -18.2745  -24.4240  -39.0362 C   0  0  0  0  0  0  0  0  0  0  0  0
  -16.9550  -24.4025  -39.4881 C   0  0  0  0  0  0  0  0  0  0  0  0
   -6.9858  -30.5379  -34.8022 C   0  0  0  0  0  0  0  0  0  0  0  0
   -8.4214  -31.5494  -33.0418 C   0  0  0  0  0  0  0  0  0  0  0  0
  -13.9518  -25.9864  -36.6293 C   0  0  0  0  0  0  0  0  0  0  0  0
  -11.5992  -25.4039  -33.1136 C   0  0  0  0  0  0  0  0  0  0  0  0
   -8.7962  -33.2289  -29.8150 C   0  0  0  0  0  0  0  0  0  0  0  0
   -9.1444  -30.8258  -30.4579 C   0  0  0  0  0  0  0  0  0  0  0  0
  -10.5810  -32.6147  -31.4798 C   0  0  0  0  0  0  0  0  0  0  0  0
   -8.0358  -29.7419  -35.4788 C   0  0  0  0  0  0  0  0  0  0  0  0
   -9.1927  -32.2741  -30.9401 C   0  0  0  0  0  0  0  0  0  0  0  0
   -5.7363  -30.5435  -35.2019 N   0  0  0  0  0  0  0  0  0  0  0  0
   -7.2050  -31.3425  -33.7020 N   0  0  0  0  0  0  0  0  0  0  0  0
  -15.1280  -25.2627  -36.3763 N   0  0  0  0  0  0  0  0  0  0  0  0
  -13.1554  -26.0355  -35.4605 N   0  0  0  0  0  0  0  0  0  0  0  0
   -9.4463  -30.9999  -33.4105 O   0  0  0  0  0  0  0  0  0  0  0  0
  -13.6527  -26.5019  -37.7017 O   0  0  0  0  0  0  0  0  0  0  0  0
   -8.2270  -28.5092  -34.7884 O   0  0  0  0  0  0  0  0  0  0  0  0
   -8.2454  -32.4059  -32.0040 O   0  0  0  0  0  0  0  0  0  0  0  0
  -19.6112  -24.0910  -40.0805 Cl  0  0  0  0  0  0  0  0  0  0  0  0
  -16.5502  -24.0401  -41.1293 Cl  0  0  0  0  0  0  0  0  0  0  0  0
   -2.2538  -32.9337  -33.2787 H   0  0  0  0  0  0  0  0  0  0  0  0
   -3.8331  -33.8368  -31.6121 H   0  0  0  0  0  0  0  0  0  0  0  0
   -3.0321  -31.3619  -35.0345 H   0  0  0  0  0  0  0  0  0  0  0  0
   -6.2192  -33.2012  -31.6478 H   0  0  0  0  0  0  0  0  0  0  0  0
  -12.0557  -27.7827  -37.1141 H   0  0  0  0  0  0  0  0  0  0  0  0
  -17.7317  -25.2333  -35.7819 H   0  0  0  0  0  0  0  0  0  0  0  0
   -9.8696  -28.8836  -36.8206 H   0  0  0  0  0  0  0  0  0  0  0  0
  -19.5722  -24.7437  -37.3322 H   0  0  0  0  0  0  0  0  0  0  0  0
   -9.2876  -26.7743  -33.1185 H   0  0  0  0  0  0  0  0  0  0  0  0
  -14.8798  -24.6670  -38.9527 H   0  0  0  0  0  0  0  0  0  0  0  0
  -11.2622  -24.3903  -33.3588 H   0  0  0  0  0  0  0  0  0  0  0  0
  -12.6932  -25.4004  -33.0371 H   0  0  0  0  0  0  0  0  0  0  0  0
  -11.2102  -25.6728  -32.1240 H   0  0  0  0  0  0  0  0  0  0  0  0
   -8.8297  -34.2694  -30.1570 H   0  0  0  0  0  0  0  0  0  0  0  0
   -7.7884  -33.0174  -29.4428 H   0  0  0  0  0  0  0  0  0  0  0  0
   -9.4974  -33.1568  -28.9756 H   0  0  0  0  0  0  0  0  0  0  0  0
   -9.4282  -30.1373  -31.2620 H   0  0  0  0  0  0  0  0  0  0  0  0
   -8.1274  -30.5480  -30.1582 H   0  0  0  0  0  0  0  0  0  0  0  0
   -9.8138  -30.6606  -29.6076 H   0  0  0  0  0  0  0  0  0  0  0  0
  -10.8657  -31.9300  -32.2869 H   0  0  0  0  0  0  0  0  0  0  0  0
  -10.6242  -33.6389  -31.8642 H   0  0  0  0  0  0  0  0  0  0  0  0
  -11.3411  -32.5039  -30.6979 H   0  0  0  0  0  0  0  0  0  0  0  0
   -7.7688  -29.5128  -36.5235 H   0  0  0  0  0  0  0  0  0  0  0  0
   -8.9992  -30.2770  -35.5042 H   0  0  0  0  0  0  0  0  0  0  0  0
  -15.2318  -24.8961  -35.4336 H   0  0  0  0  0  0  0  0  0  0  0  0
  -13.5504  -25.5537  -34.6470 H   0  0  0  0  0  0  0  0  0  0  0  0
  1  2  2  0  0  0  0
  1  3  1  0  0  0  0
  2  4  1  0  0  0  0
  3 12  2  0  0  0  0
  4 13  2  0  0  0  0
  5  7  1  0  0  0  0
  5 15  2  0  0  0  0
  6  8  1  0  0  0  0
  6 14  2  0  0  0  0
  7 16  2  0  0  0  0
  8 17  2  0  0  0  0
  9 11  2  0  0  0  0
  9 16  1  0  0  0  0
 10 14  1  0  0  0  0
 10 18  2  0  0  0  0
 11 15  1  0  0  0  0
 11 22  1  0  0  0  0
 12 13  1  0  0  0  0
 12 28  1  0  0  0  0
 13 29  1  0  0  0  0
 14 30  1  0  0  0  0
 15 31  1  0  0  0  0
 16 34  1  0  0  0  0
 17 18  1  0  0  0  0
 17 36  1  0  0  0  0
 18 37  1  0  0  0  0
 19 26  1  0  0  0  0
 19 28  2  0  0  0  0
 19 29  1  0  0  0  0
 20 29  1  0  0  0  0
 20 32  2  0  0  0  0
 20 35  1  0  0  0  0
 21 30  1  0  0  0  0
 21 31  1  0  0  0  0
 21 33  2  0  0  0  0
 23 27  1  0  0  0  0
 24 27  1  0  0  0  0
 25 27  1  0  0  0  0
 26 34  1  0  0  0  0
 27 35  1  0  0  0  0
  1 38  1  0  0  0  0
  2 39  1  0  0  0  0
  3 40  1  0  0  0  0
  4 41  1  0  0  0  0
  5 42  1  0  0  0  0
  6 43  1  0  0  0  0
  7 44  1  0  0  0  0
  8 45  1  0  0  0  0
  9 46  1  0  0  0  0
 10 47  1  0  0  0  0
 22 48  1  0  0  0  0
 22 49  1  0  0  0  0
 22 50  1  0  0  0  0
 23 51  1  0  0  0  0
 23 52  1  0  0  0  0
 23 53  1  0  0  0  0
 24 54  1  0  0  0  0
 24 55  1  0  0  0  0
 24 56  1  0  0  0  0
 25 57  1  0  0  0  0
 25 58  1  0  0  0  0
 25 59  1  0  0  0  0
 26 60  1  0  0  0  0
 26 61  1  0  0  0  0
 30 62  1  0  0  0  0
 31 63  1  0  0  0  0
M  END
> <SourceTag>
EZ_12

> <Clean Energy>
28.3989

> <Activity_sEH>
0.7

> <Activity_FLAP>
3.7

> <Gold.Version>
5.2

> <Gold.Id.Protein>
6HGV|6HGV_protein|mol2

> <Gold.PLP.Fitness>
86.7426

> <Gold.PLP.PLP>
-80.4096

> <Gold.PLP.part.hbond>
-7.0624

> <Gold.PLP.part.metal>
0.0000

> <Gold.PLP.part.buried>
7.4812

> <Gold.PLP.part.nonpolar>
-81.6601

> <Gold.PLP.part.repulsive>
0.0563

> <Gold.PLP.ligand.clash>
0.0000

> <Gold.PLP.ligand.torsion>
1.4761

> <Gold.PLP.Chemscore.Hbond>
2.2010

> <Gold.PLP.Chemscore.CHOScore>
0.0000

> <Gold.PLP.Chemscore.Metal>
0.0000

> <Gold.Chemscore.Hbonds>
donor molecule, donor type, donor heavy atom, donor atom, acceptor molecule, acceptor atom, score
      L1  H    30    62       P1   853  0.38
      L1  H    31    63       P1   853  0.18
      P1  H  1256  3855       L1    33  0.06
      P1  H  1247  3847       L1    33  0.64
      P1  H  1931  4507       L1    33  0.94

> <Gold.PLP.Chemscore.Internal.Correction>
0.4579

> <Gold.Protein.RotatedTorsions>
[ 3525  925  924  922 ] final  115.36 input   59.99 | X-H torsion
[ 3781 1176 1175 1172 ] final  -42.57 input   60.00 | X-H torsion
[ 4531 1957 1955 1953 ] final  -37.81 input   60.00 | X-H torsion
[ 3847 1247 1246 1244 ] final  160.34 input   60.00 | X-H torsion
[ 4507 1931 1930 1928 ] final  -10.47 input   60.00 | X-H torsion
[ 3677 1070 1069 1066 ] final  130.72 input   60.00 | X-H torsion

> <Gold.Protein.ActiveResidues>
 GLY266  PHE267  PRO268  GLU269  MET310  HIS334  ASP335  TRP336  GLY337  GLY338 
 MET339  LEU340  TRP342  TYR343  LEU358  ASN359  THR360  PRO361  ILE363  ALA365 
 MET369  SER370  PRO371  LEU372  GLU373  SER374  ILE375  LYS376  ALA377  ASN378 
 VAL380  PHE381  ASP382  TYR383  GLN384  PHE387  GLN388  LEU397  SER407  LEU408 
 PHE409  ARG410  LEU417  MET419  LEU428  PHE429  PHE459  TRP465  TYR466  ASN468 
 MET469  GLU470  ASN472  TRP473  ALA476  ASP496  PHE497  VAL498  LEU499  MET503 
 HIS524  TRP525 

> <Gold.Protein.RotatedAtoms>
   -2.1511  -30.1835  -30.3970 H   0  0  0  0  0  0  0  0  0  0  0  0  # atno 3525 bound_to 925 
  -11.4422  -22.2479  -30.7030 H   0  0  0  0  0  0  0  0  0  0  0  0  # atno 3677 bound_to 1070
  -10.4535  -36.8438  -34.1025 H   0  0  0  0  0  0  0  0  0  0  0  0  # atno 3781 bound_to 1176
  -14.4607  -27.6848  -37.9404 H   0  0  0  0  0  0  0  0  0  0  0  0  # atno 3847 bound_to 1247
  -13.3631  -25.3581  -39.2130 H   0  0  0  0  0  0  0  0  0  0  0  0  # atno 4507 bound_to 1931
   -2.3333  -32.2089  -36.7835 H   0  0  0  0  0  0  0  0  0  0  0  0  # atno 4531 bound_to 1957
   -3.6430  -29.5339  -30.4158 LP  0  0  0  0  0  0  0  0  0  0  0  0  # atno 5201 bound_to 925 
   -2.9543  -29.9637  -28.9989 LP  0  0  0  0  0  0  0  0  0  0  0  0  # atno 5202 bound_to 925 
   -9.2381  -36.3995  -33.1158 LP  0  0  0  0  0  0  0  0  0  0  0  0  # atno 5205 bound_to 1176
  -10.4162  -37.3899  -32.5701 LP  0  0  0  0  0  0  0  0  0  0  0  0  # atno 5206 bound_to 1176
   -1.3102  -33.4563  -36.9972 LP  0  0  0  0  0  0  0  0  0  0  0  0  # atno 5213 bound_to 1957
   -2.8918  -33.7353  -36.7013 LP  0  0  0  0  0  0  0  0  0  0  0  0  # atno 5214 bound_to 1957
  -15.1247  -28.9654  -37.1872 LP  0  0  0  0  0  0  0  0  0  0  0  0  # atno 5227 bound_to 1247
  -15.9841  -27.5897  -37.3762 LP  0  0  0  0  0  0  0  0  0  0  0  0  # atno 5228 bound_to 1247
  -13.4005  -24.3447  -40.4857 LP  0  0  0  0  0  0  0  0  0  0  0  0  # atno 5245 bound_to 1931
  -12.4290  -24.0257  -39.2125 LP  0  0  0  0  0  0  0  0  0  0  0  0  # atno 5246 bound_to 1931
  -12.8136  -23.1045  -30.5196 LP  0  0  0  0  0  0  0  0  0  0  0  0  # atno 5265 bound_to 1070
  -11.6019  -23.6865  -31.4467 LP  0  0  0  0  0  0  0  0  0  0  0  0  # atno 5266 bound_to 1070

$$$$
EZ_12|Lisa_paper2_min|sdf|1|dock7
  -GOLD-  10202014243D 1   1.00000     0.00000

 63 66  0  0  0  0  0  0  0  0  1 V2000
   -3.3062  -32.1103  -33.2005 C   0  0  0  0  0  0  0  0  0  0  0  0
   -4.1649  -32.5187  -32.1821 C   0  0  0  0  0  0  0  0  0  0  0  0
   -3.7747  -31.3236  -34.2568 C   0  0  0  0  0  0  0  0  0  0  0  0
   -5.5164  -32.1558  -32.1845 C   0  0  0  0  0  0  0  0  0  0  0  0
  -11.7078  -27.5053  -36.1747 C   0  0  0  0  0  0  0  0  0  0  0  0
  -17.8511  -25.2853  -36.8641 C   0  0  0  0  0  0  0  0  0  0  0  0
  -10.4232  -28.0296  -36.0322 C   0  0  0  0  0  0  0  0  0  0  0  0
  -18.8712  -24.9560  -37.7566 C   0  0  0  0  0  0  0  0  0  0  0  0
  -10.1332  -26.7647  -33.9942 C   0  0  0  0  0  0  0  0  0  0  0  0
  -16.2118  -24.4484  -38.4292 C   0  0  0  0  0  0  0  0  0  0  0  0
  -11.4178  -26.2402  -34.1369 C   0  0  0  0  0  0  0  0  0  0  0  0
   -5.1302  -30.9500  -34.2750 C   0  0  0  0  0  0  0  0  0  0  0  0
   -5.9781  -31.3665  -33.2478 C   0  0  0  0  0  0  0  0  0  0  0  0
  -16.5214  -25.0314  -37.2004 C   0  0  0  0  0  0  0  0  0  0  0  0
  -12.2051  -26.6105  -35.2272 C   0  0  0  0  0  0  0  0  0  0  0  0
   -9.6358  -27.6593  -34.9419 C   0  0  0  0  0  0  0  0  0  0  0  0
  -18.5617  -24.3730  -38.9854 C   0  0  0  0  0  0  0  0  0  0  0  0
  -17.2320  -24.1192  -39.3217 C   0  0  0  0  0  0  0  0  0  0  0  0
   -7.0398  -30.1414  -34.7516 C   0  0  0  0  0  0  0  0  0  0  0  0
   -8.4115  -30.9657  -32.8484 C   0  0  0  0  0  0  0  0  0  0  0  0
  -14.2283  -25.9153  -36.5847 C   0  0  0  0  0  0  0  0  0  0  0  0
  -11.9241  -25.2838  -33.1065 C   0  0  0  0  0  0  0  0  0  0  0  0
  -10.4300  -32.6071  -31.8080 C   0  0  0  0  0  0  0  0  0  0  0  0
   -8.9478  -32.8905  -29.7999 C   0  0  0  0  0  0  0  0  0  0  0  0
   -9.8481  -30.6185  -30.3791 C   0  0  0  0  0  0  0  0  0  0  0  0
   -8.1121  -29.4091  -35.4641 C   0  0  0  0  0  0  0  0  0  0  0  0
   -9.3588  -31.9550  -30.9350 C   0  0  0  0  0  0  0  0  0  0  0  0
   -5.8061  -30.1942  -35.1945 N   0  0  0  0  0  0  0  0  0  0  0  0
   -7.2201  -30.8325  -33.5701 N   0  0  0  0  0  0  0  0  0  0  0  0
  -15.4868  -25.3649  -36.2945 N   0  0  0  0  0  0  0  0  0  0  0  0
  -13.4934  -26.0948  -35.3887 N   0  0  0  0  0  0  0  0  0  0  0  0
   -9.4480  -30.4486  -33.2314 O   0  0  0  0  0  0  0  0  0  0  0  0
  -13.8200  -26.2005  -37.7060 O   0  0  0  0  0  0  0  0  0  0  0  0
   -8.3756  -28.1743  -34.8017 O   0  0  0  0  0  0  0  0  0  0  0  0
   -8.1993  -31.7172  -31.7385 O   0  0  0  0  0  0  0  0  0  0  0  0
  -19.8698  -23.9911  -40.0489 Cl  0  0  0  0  0  0  0  0  0  0  0  0
  -16.7852  -23.4011  -40.8296 Cl  0  0  0  0  0  0  0  0  0  0  0  0
   -2.2609  -32.4060  -33.1748 H   0  0  0  0  0  0  0  0  0  0  0  0
   -3.7794  -33.1308  -31.3704 H   0  0  0  0  0  0  0  0  0  0  0  0
   -3.0998  -31.0095  -35.0471 H   0  0  0  0  0  0  0  0  0  0  0  0
   -6.1634  -32.4865  -31.3807 H   0  0  0  0  0  0  0  0  0  0  0  0
  -12.3119  -27.8004  -37.0293 H   0  0  0  0  0  0  0  0  0  0  0  0
  -18.1032  -25.7378  -35.9085 H   0  0  0  0  0  0  0  0  0  0  0  0
  -10.0416  -28.7265  -36.7734 H   0  0  0  0  0  0  0  0  0  0  0  0
  -19.9020  -25.1597  -37.4771 H   0  0  0  0  0  0  0  0  0  0  0  0
   -9.5168  -26.4776  -33.1457 H   0  0  0  0  0  0  0  0  0  0  0  0
  -15.1725  -24.2540  -38.6865 H   0  0  0  0  0  0  0  0  0  0  0  0
  -11.6715  -24.2552  -33.3875 H   0  0  0  0  0  0  0  0  0  0  0  0
  -13.0127  -25.3599  -32.9973 H   0  0  0  0  0  0  0  0  0  0  0  0
  -11.4883  -25.4954  -32.1225 H   0  0  0  0  0  0  0  0  0  0  0  0
  -10.7277  -31.9388  -32.6238 H   0  0  0  0  0  0  0  0  0  0  0  0
  -10.0789  -33.5495  -32.2409 H   0  0  0  0  0  0  0  0  0  0  0  0
  -11.3375  -32.8096  -31.2276 H   0  0  0  0  0  0  0  0  0  0  0  0
   -8.1794  -32.4266  -29.1709 H   0  0  0  0  0  0  0  0  0  0  0  0
   -8.5079  -33.8134  -30.1947 H   0  0  0  0  0  0  0  0  0  0  0  0
   -9.8004  -33.1561  -29.1665 H   0  0  0  0  0  0  0  0  0  0  0  0
   -9.0799  -30.1505  -29.7529 H   0  0  0  0  0  0  0  0  0  0  0  0
  -10.1127  -29.9210  -31.1806 H   0  0  0  0  0  0  0  0  0  0  0  0
  -10.7254  -30.7609  -29.7378 H   0  0  0  0  0  0  0  0  0  0  0  0
   -7.8348  -29.1868  -36.5076 H   0  0  0  0  0  0  0  0  0  0  0  0
   -9.0484  -29.9899  -35.4981 H   0  0  0  0  0  0  0  0  0  0  0  0
  -15.6785  -25.1836  -35.3125 H   0  0  0  0  0  0  0  0  0  0  0  0
  -13.9797  -25.8058  -34.5343 H   0  0  0  0  0  0  0  0  0  0  0  0
  1  2  2  0  0  0  0
  1  3  1  0  0  0  0
  2  4  1  0  0  0  0
  3 12  2  0  0  0  0
  4 13  2  0  0  0  0
  5  7  1  0  0  0  0
  5 15  2  0  0  0  0
  6  8  1  0  0  0  0
  6 14  2  0  0  0  0
  7 16  2  0  0  0  0
  8 17  2  0  0  0  0
  9 11  2  0  0  0  0
  9 16  1  0  0  0  0
 10 14  1  0  0  0  0
 10 18  2  0  0  0  0
 11 15  1  0  0  0  0
 11 22  1  0  0  0  0
 12 13  1  0  0  0  0
 12 28  1  0  0  0  0
 13 29  1  0  0  0  0
 14 30  1  0  0  0  0
 15 31  1  0  0  0  0
 16 34  1  0  0  0  0
 17 18  1  0  0  0  0
 17 36  1  0  0  0  0
 18 37  1  0  0  0  0
 19 26  1  0  0  0  0
 19 28  2  0  0  0  0
 19 29  1  0  0  0  0
 20 29  1  0  0  0  0
 20 32  2  0  0  0  0
 20 35  1  0  0  0  0
 21 30  1  0  0  0  0
 21 31  1  0  0  0  0
 21 33  2  0  0  0  0
 23 27  1  0  0  0  0
 24 27  1  0  0  0  0
 25 27  1  0  0  0  0
 26 34  1  0  0  0  0
 27 35  1  0  0  0  0
  1 38  1  0  0  0  0
  2 39  1  0  0  0  0
  3 40  1  0  0  0  0
  4 41  1  0  0  0  0
  5 42  1  0  0  0  0
  6 43  1  0  0  0  0
  7 44  1  0  0  0  0
  8 45  1  0  0  0  0
  9 46  1  0  0  0  0
 10 47  1  0  0  0  0
 22 48  1  0  0  0  0
 22 49  1  0  0  0  0
 22 50  1  0  0  0  0
 23 51  1  0  0  0  0
 23 52  1  0  0  0  0
 23 53  1  0  0  0  0
 24 54  1  0  0  0  0
 24 55  1  0  0  0  0
 24 56  1  0  0  0  0
 25 57  1  0  0  0  0
 25 58  1  0  0  0  0
 25 59  1  0  0  0  0
 26 60  1  0  0  0  0
 26 61  1  0  0  0  0
 30 62  1  0  0  0  0
 31 63  1  0  0  0  0
M  END
> <SourceTag>
EZ_12

> <Clean Energy>
28.3989

> <Activity_sEH>
0.7

> <Activity_FLAP>
3.7

> <Gold.Version>
5.2

> <Gold.Id.Protein>
6HGV|6HGV_protein|mol2

> <Gold.PLP.Fitness>
86.5896

> <Gold.PLP.PLP>
-82.5846

> <Gold.PLP.part.hbond>
-8.3338

> <Gold.PLP.part.metal>
0.0000

> <Gold.PLP.part.buried>
6.4711

> <Gold.PLP.part.nonpolar>
-82.1105

> <Gold.PLP.part.repulsive>
0.0681

> <Gold.PLP.ligand.clash>
0.0000

> <Gold.PLP.ligand.torsion>
1.1729

> <Gold.PLP.Chemscore.Hbond>
1.4109

> <Gold.PLP.Chemscore.CHOScore>
0.0000

> <Gold.PLP.Chemscore.Metal>
0.0000

> <Gold.Chemscore.Hbonds>
donor molecule, donor type, donor heavy atom, donor atom, acceptor molecule, acceptor atom, score
      L1  H    30    62       P1   853  0.07
      L1  H    31    63       P1   853  0.03
      P1  H  1247  3847       L1    33  0.31
      P1  H  1931  4507       L1    33  1.00

> <Gold.PLP.Chemscore.Internal.Correction>
0.4657

> <Gold.Protein.RotatedTorsions>
[ 3525  925  924  922 ] final -173.32 input   59.99 | X-H torsion
[ 3781 1176 1175 1172 ] final   61.44 input   60.00 | X-H torsion
[ 4531 1957 1955 1953 ] final  138.43 input   60.00 | X-H torsion
[ 3847 1247 1246 1244 ] final  152.37 input   60.00 | X-H torsion
[ 4507 1931 1930 1928 ] final   10.52 input   60.00 | X-H torsion
[ 3677 1070 1069 1066 ] final -116.26 input   60.00 | X-H torsion

> <Gold.Protein.ActiveResidues>
 GLY266  PHE267  PRO268  GLU269  MET310  HIS334  ASP335  TRP336  GLY337  GLY338 
 MET339  LEU340  TRP342  TYR343  LEU358  ASN359  THR360  PRO361  ILE363  ALA365 
 MET369  SER370  PRO371  LEU372  GLU373  SER374  ILE375  LYS376  ALA377  ASN378 
 VAL380  PHE381  ASP382  TYR383  GLN384  PHE387  GLN388  LEU397  SER407  LEU408 
 PHE409  ARG410  LEU417  MET419  LEU428  PHE429  PHE459  TRP465  TYR466  ASN468 
 MET469  GLU470  ASN472  TRP473  ALA476  ASP496  PHE497  VAL498  LEU499  MET503 
 HIS524  TRP525 

> <Gold.Protein.RotatedAtoms>
   -2.2954  -30.2195  -29.3156 H   0  0  0  0  0  0  0  0  0  0  0  0  # atno 3525 bound_to 925 
  -11.5102  -23.6177  -31.4497 H   0  0  0  0  0  0  0  0  0  0  0  0  # atno 3677 bound_to 1070
  -10.5903  -37.4384  -32.7589 H   0  0  0  0  0  0  0  0  0  0  0  0  # atno 3781 bound_to 1176
  -14.3995  -27.7980  -37.9212 H   0  0  0  0  0  0  0  0  0  0  0  0  # atno 3847 bound_to 1247
  -13.1437  -25.2409  -38.9797 H   0  0  0  0  0  0  0  0  0  0  0  0  # atno 4507 bound_to 1931
   -2.0845  -34.0622  -36.8629 H   0  0  0  0  0  0  0  0  0  0  0  0  # atno 4531 bound_to 1957
   -2.7062  -29.9018  -30.8578 LP  0  0  0  0  0  0  0  0  0  0  0  0  # atno 5201 bound_to 925 
   -3.7457  -29.5595  -29.6458 LP  0  0  0  0  0  0  0  0  0  0  0  0  # atno 5202 bound_to 925 
  -10.2541  -36.6856  -34.1619 LP  0  0  0  0  0  0  0  0  0  0  0  0  # atno 5205 bound_to 1176
   -9.2624  -36.5052  -32.8771 LP  0  0  0  0  0  0  0  0  0  0  0  0  # atno 5206 bound_to 1176
   -3.0241  -32.7492  -36.6591 LP  0  0  0  0  0  0  0  0  0  0  0  0  # atno 5213 bound_to 1957
   -1.4284  -32.5761  -36.9595 LP  0  0  0  0  0  0  0  0  0  0  0  0  # atno 5214 bound_to 1957
  -15.2478  -28.9495  -37.1450 LP  0  0  0  0  0  0  0  0  0  0  0  0  # atno 5227 bound_to 1247
  -15.9228  -27.4916  -37.4377 LP  0  0  0  0  0  0  0  0  0  0  0  0  # atno 5228 bound_to 1247
  -13.5723  -24.6367  -40.4285 LP  0  0  0  0  0  0  0  0  0  0  0  0  # atno 5245 bound_to 1931
  -12.4782  -23.8519  -39.5047 LP  0  0  0  0  0  0  0  0  0  0  0  0  # atno 5246 bound_to 1931
  -11.5284  -22.2063  -30.6399 LP  0  0  0  0  0  0  0  0  0  0  0  0  # atno 5265 bound_to 1070
  -12.8186  -23.2052  -30.5745 LP  0  0  0  0  0  0  0  0  0  0  0  0  # atno 5266 bound_to 1070

$$$$
EZ_12|Lisa_paper2_min|sdf|1|dock1
  -GOLD-  10202014243D 1   1.00000     0.00000

 63 66  0  0  0  0  0  0  0  0  1 V2000
   -4.3052  -31.6531  -35.5023 C   0  0  0  0  0  0  0  0  0  0  0  0
   -5.1915  -32.7281  -35.4904 C   0  0  0  0  0  0  0  0  0  0  0  0
   -4.7443  -30.3623  -35.1940 C   0  0  0  0  0  0  0  0  0  0  0  0
   -6.5422  -32.5503  -35.1708 C   0  0  0  0  0  0  0  0  0  0  0  0
  -12.4749  -25.9625  -36.1958 C   0  0  0  0  0  0  0  0  0  0  0  0
  -19.1029  -25.3476  -37.3195 C   0  0  0  0  0  0  0  0  0  0  0  0
  -11.1179  -26.2147  -35.9942 C   0  0  0  0  0  0  0  0  0  0  0  0
  -20.0553  -24.7307  -38.1307 C   0  0  0  0  0  0  0  0  0  0  0  0
  -11.6742  -28.1977  -34.7311 C   0  0  0  0  0  0  0  0  0  0  0  0
  -17.3379  -24.3711  -38.6492 C   0  0  0  0  0  0  0  0  0  0  0  0
  -13.0312  -27.9454  -34.9326 C   0  0  0  0  0  0  0  0  0  0  0  0
   -6.0987  -30.1657  -34.8709 C   0  0  0  0  0  0  0  0  0  0  0  0
   -6.9744  -31.2522  -34.8629 C   0  0  0  0  0  0  0  0  0  0  0  0
  -17.7442  -25.1677  -37.5787 C   0  0  0  0  0  0  0  0  0  0  0  0
  -13.4315  -26.8278  -35.6649 C   0  0  0  0  0  0  0  0  0  0  0  0
  -10.7175  -27.3323  -35.2618 C   0  0  0  0  0  0  0  0  0  0  0  0
  -19.6490  -23.9340  -39.2011 C   0  0  0  0  0  0  0  0  0  0  0  0
  -18.2902  -23.7542  -39.4604 C   0  0  0  0  0  0  0  0  0  0  0  0
   -7.9943  -29.3636  -34.3313 C   0  0  0  0  0  0  0  0  0  0  0  0
   -9.4177  -31.4023  -34.3630 C   0  0  0  0  0  0  0  0  0  0  0  0
  -15.3852  -25.8223  -36.9265 C   0  0  0  0  0  0  0  0  0  0  0  0
  -14.0335  -28.8894  -34.3521 C   0  0  0  0  0  0  0  0  0  0  0  0
  -11.0430  -33.4882  -33.2346 C   0  0  0  0  0  0  0  0  0  0  0  0
  -11.3848  -32.8778  -35.6472 C   0  0  0  0  0  0  0  0  0  0  0  0
  -10.0710  -34.9338  -35.0512 C   0  0  0  0  0  0  0  0  0  0  0  0
   -9.0464  -28.3952  -33.9453 C   0  0  0  0  0  0  0  0  0  0  0  0
  -10.4311  -33.5085  -34.6346 C   0  0  0  0  0  0  0  0  0  0  0  0
   -6.7489  -29.0076  -34.5399 N   0  0  0  0  0  0  0  0  0  0  0  0
   -8.2069  -30.7160  -34.5093 N   0  0  0  0  0  0  0  0  0  0  0  0
  -16.7784  -25.7931  -36.7552 N   0  0  0  0  0  0  0  0  0  0  0  0
  -14.7858  -26.5569  -35.8760 N   0  0  0  0  0  0  0  0  0  0  0  0
  -10.4430  -30.8220  -34.0466 O   0  0  0  0  0  0  0  0  0  0  0  0
  -14.7723  -25.2919  -37.8476 O   0  0  0  0  0  0  0  0  0  0  0  0
   -9.3862  -27.5800  -35.0646 O   0  0  0  0  0  0  0  0  0  0  0  0
   -9.2360  -32.7222  -34.6205 O   0  0  0  0  0  0  0  0  0  0  0  0
  -20.8769  -23.1994  -40.1711 Cl  0  0  0  0  0  0  0  0  0  0  0  0
  -17.7248  -22.7810  -40.7727 Cl  0  0  0  0  0  0  0  0  0  0  0  0
   -3.2611  -31.8183  -35.7539 H   0  0  0  0  0  0  0  0  0  0  0  0
   -4.8284  -33.7236  -35.7339 H   0  0  0  0  0  0  0  0  0  0  0  0
   -4.0481  -29.5294  -35.2057 H   0  0  0  0  0  0  0  0  0  0  0  0
   -7.2110  -33.4029  -35.1688 H   0  0  0  0  0  0  0  0  0  0  0  0
  -12.7750  -25.0875  -36.7673 H   0  0  0  0  0  0  0  0  0  0  0  0
  -19.4302  -25.9651  -36.4869 H   0  0  0  0  0  0  0  0  0  0  0  0
  -10.3775  -25.5371  -36.4106 H   0  0  0  0  0  0  0  0  0  0  0  0
  -21.1098  -24.8807  -37.9129 H   0  0  0  0  0  0  0  0  0  0  0  0
  -11.3590  -29.0678  -34.1603 H   0  0  0  0  0  0  0  0  0  0  0  0
  -16.2765  -24.2356  -38.8472 H   0  0  0  0  0  0  0  0  0  0  0  0
  -14.3125  -28.5715  -33.3411 H   0  0  0  0  0  0  0  0  0  0  0  0
  -14.9397  -28.9323  -34.9684 H   0  0  0  0  0  0  0  0  0  0  0  0
  -13.6330  -29.9092  -34.3008 H   0  0  0  0  0  0  0  0  0  0  0  0
  -10.3617  -33.9400  -32.5050 H   0  0  0  0  0  0  0  0  0  0  0  0
  -11.2737  -32.4683  -32.9100 H   0  0  0  0  0  0  0  0  0  0  0  0
  -11.9659  -34.0787  -33.2027 H   0  0  0  0  0  0  0  0  0  0  0  0
  -10.9498  -32.8903  -36.6530 H   0  0  0  0  0  0  0  0  0  0  0  0
  -11.5714  -31.8255  -35.4045 H   0  0  0  0  0  0  0  0  0  0  0  0
  -12.3454  -33.4021  -35.6783 H   0  0  0  0  0  0  0  0  0  0  0  0
   -9.6320  -34.9486  -36.0554 H   0  0  0  0  0  0  0  0  0  0  0  0
   -9.3585  -35.3893  -34.3558 H   0  0  0  0  0  0  0  0  0  0  0  0
  -10.9661  -35.5647  -35.0957 H   0  0  0  0  0  0  0  0  0  0  0  0
   -9.9625  -28.9004  -33.5975 H   0  0  0  0  0  0  0  0  0  0  0  0
   -8.7131  -27.7368  -33.1265 H   0  0  0  0  0  0  0  0  0  0  0  0
  -17.1375  -26.2816  -35.9389 H   0  0  0  0  0  0  0  0  0  0  0  0
  -15.4401  -26.9364  -35.1848 H   0  0  0  0  0  0  0  0  0  0  0  0
  1  2  2  0  0  0  0
  1  3  1  0  0  0  0
  2  4  1  0  0  0  0
  3 12  2  0  0  0  0
  4 13  2  0  0  0  0
  5  7  1  0  0  0  0
  5 15  2  0  0  0  0
  6  8  1  0  0  0  0
  6 14  2  0  0  0  0
  7 16  2  0  0  0  0
  8 17  2  0  0  0  0
  9 11  2  0  0  0  0
  9 16  1  0  0  0  0
 10 14  1  0  0  0  0
 10 18  2  0  0  0  0
 11 15  1  0  0  0  0
 11 22  1  0  0  0  0
 12 13  1  0  0  0  0
 12 28  1  0  0  0  0
 13 29  1  0  0  0  0
 14 30  1  0  0  0  0
 15 31  1  0  0  0  0
 16 34  1  0  0  0  0
 17 18  1  0  0  0  0
 17 36  1  0  0  0  0
 18 37  1  0  0  0  0
 19 26  1  0  0  0  0
 19 28  2  0  0  0  0
 19 29  1  0  0  0  0
 20 29  1  0  0  0  0
 20 32  2  0  0  0  0
 20 35  1  0  0  0  0
 21 30  1  0  0  0  0
 21 31  1  0  0  0  0
 21 33  2  0  0  0  0
 23 27  1  0  0  0  0
 24 27  1  0  0  0  0
 25 27  1  0  0  0  0
 26 34  1  0  0  0  0
 27 35  1  0  0  0  0
  1 38  1  0  0  0  0
  2 39  1  0  0  0  0
  3 40  1  0  0  0  0
  4 41  1  0  0  0  0
  5 42  1  0  0  0  0
  6 43  1  0  0  0  0
  7 44  1  0  0  0  0
  8 45  1  0  0  0  0
  9 46  1  0  0  0  0
 10 47  1  0  0  0  0
 22 48  1  0  0  0  0
 22 49  1  0  0  0  0
 22 50  1  0  0  0  0
 23 51  1  0  0  0  0
 23 52  1  0  0  0  0
 23 53  1  0  0  0  0
 24 54  1  0  0  0  0
 24 55  1  0  0  0  0
 24 56  1  0  0  0  0
 25 57  1  0  0  0  0
 25 58  1  0  0  0  0
 25 59  1  0  0  0  0
 26 60  1  0  0  0  0
 26 61  1  0  0  0  0
 30 62  1  0  0  0  0
 31 63  1  0  0  0  0
M  END
> <SourceTag>
EZ_12

> <Clean Energy>
28.3989

> <Activity_sEH>
0.7

> <Activity_FLAP>
3.7

> <Gold.Version>
5.2

> <Gold.Id.Protein>
6HGV|6HGV_protein|mol2

> <Gold.PLP.Fitness>
86.4773

> <Gold.PLP.PLP>
-83.9929

> <Gold.PLP.part.hbond>
-7.8126

> <Gold.PLP.part.metal>
0.0000

> <Gold.PLP.part.buried>
10.6466

> <Gold.PLP.part.nonpolar>
-88.0437

> <Gold.PLP.part.repulsive>
0.1291

> <Gold.PLP.ligand.clash>
0.0043

> <Gold.PLP.ligand.torsion>
0.9605

> <Gold.PLP.Chemscore.Hbond>
0.8832

> <Gold.PLP.Chemscore.CHOScore>
0.0000

> <Gold.PLP.Chemscore.Metal>
0.0000

> <Gold.Chemscore.Hbonds>
donor molecule, donor type, donor heavy atom, donor atom, acceptor molecule, acceptor atom, score
      P1  H  1931  4507       L1    33  0.88

> <Gold.PLP.Chemscore.Internal.Correction>
0.4994

> <Gold.Protein.RotatedTorsions>
[ 3525  925  924  922 ] final  115.96 input   59.99 | X-H torsion
[ 3781 1176 1175 1172 ] final  158.48 input   60.00 | X-H torsion
[ 4531 1957 1955 1953 ] final -150.25 input   60.00 | X-H torsion
[ 3847 1247 1246 1244 ] final  108.38 input   60.00 | X-H torsion
[ 4507 1931 1930 1928 ] final   -4.95 input   60.00 | X-H torsion
[ 3677 1070 1069 1066 ] final  168.33 input   60.00 | X-H torsion

> <Gold.Protein.ActiveResidues>
 GLY266  PHE267  PRO268  GLU269  MET310  HIS334  ASP335  TRP336  GLY337  GLY338 
 MET339  LEU340  TRP342  TYR343  LEU358  ASN359  THR360  PRO361  ILE363  ALA365 
 MET369  SER370  PRO371  LEU372  GLU373  SER374  ILE375  LYS376  ALA377  ASN378 
 VAL380  PHE381  ASP382  TYR383  GLN384  PHE387  GLN388  LEU397  SER407  LEU408 
 PHE409  ARG410  LEU417  MET419  LEU428  PHE429  PHE459  TRP465  TYR466  ASN468 
 MET469  GLU470  ASN472  TRP473  ALA476  ASP496  PHE497  VAL498  LEU499  MET503 
 HIS524  TRP525 

> <Gold.Protein.RotatedAtoms>
   -2.1470  -30.1860  -30.3885 H   0  0  0  0  0  0  0  0  0  0  0  0  # atno 3525 bound_to 925 
  -11.1239  -22.6104  -31.0659 H   0  0  0  0  0  0  0  0  0  0  0  0  # atno 3677 bound_to 1070
   -9.4039  -36.7078  -32.5963 H   0  0  0  0  0  0  0  0  0  0  0  0  # atno 3781 bound_to 1176
  -14.3521  -28.4575  -37.6875 H   0  0  0  0  0  0  0  0  0  0  0  0  # atno 3847 bound_to 1247
  -13.3081  -25.3369  -39.1447 H   0  0  0  0  0  0  0  0  0  0  0  0  # atno 4507 bound_to 1931
   -1.2821  -33.3355  -37.0029 H   0  0  0  0  0  0  0  0  0  0  0  0  # atno 4531 bound_to 1957
   -3.6381  -29.5352  -30.4242 LP  0  0  0  0  0  0  0  0  0  0  0  0  # atno 5201 bound_to 925 
   -2.9633  -29.9598  -28.9990 LP  0  0  0  0  0  0  0  0  0  0  0  0  # atno 5202 bound_to 925 
  -10.7746  -37.4364  -33.0844 LP  0  0  0  0  0  0  0  0  0  0  0  0  # atno 5205 bound_to 1176
   -9.9367  -36.4901  -34.1184 LP  0  0  0  0  0  0  0  0  0  0  0  0  # atno 5206 bound_to 1176
   -2.8077  -33.8253  -36.7189 LP  0  0  0  0  0  0  0  0  0  0  0  0  # atno 5213 bound_to 1957
   -2.4528  -32.2318  -36.7588 LP  0  0  0  0  0  0  0  0  0  0  0  0  # atno 5214 bound_to 1957
  -15.8444  -28.5835  -37.0508 LP  0  0  0  0  0  0  0  0  0  0  0  0  # atno 5227 bound_to 1247
  -15.3739  -27.1935  -37.7672 LP  0  0  0  0  0  0  0  0  0  0  0  0  # atno 5228 bound_to 1247
  -13.4511  -24.4201  -40.4815 LP  0  0  0  0  0  0  0  0  0  0  0  0  # atno 5245 bound_to 1931
  -12.4338  -23.9717  -39.2855 LP  0  0  0  0  0  0  0  0  0  0  0  0  # atno 5246 bound_to 1931
  -12.5772  -22.5758  -30.3347 LP  0  0  0  0  0  0  0  0  0  0  0  0  # atno 5265 bound_to 1070
  -12.1588  -23.8501  -31.2661 LP  0  0  0  0  0  0  0  0  0  0  0  0  # atno 5266 bound_to 1070

$$$$
EZ_12|Lisa_paper2_min|sdf|1|dock6
  -GOLD-  10202014243D 1   1.00000     0.00000

 63 66  0  0  0  0  0  0  0  0  1 V2000
   -7.4884  -33.9382  -36.6112 C   0  0  0  0  0  0  0  0  0  0  0  0
   -6.5014  -33.8578  -35.6310 C   0  0  0  0  0  0  0  0  0  0  0  0
   -8.7485  -33.3697  -36.4038 C   0  0  0  0  0  0  0  0  0  0  0  0
   -6.7392  -33.2085  -34.4145 C   0  0  0  0  0  0  0  0  0  0  0  0
  -13.0090  -28.3434  -35.1480 C   0  0  0  0  0  0  0  0  0  0  0  0
  -17.2547  -25.2802  -37.5290 C   0  0  0  0  0  0  0  0  0  0  0  0
  -12.3446  -29.1568  -34.2301 C   0  0  0  0  0  0  0  0  0  0  0  0
  -18.4913  -24.8603  -38.0188 C   0  0  0  0  0  0  0  0  0  0  0  0
  -10.6516  -27.4562  -33.9487 C   0  0  0  0  0  0  0  0  0  0  0  0
  -16.1374  -23.9157  -39.1803 C   0  0  0  0  0  0  0  0  0  0  0  0
  -11.3160  -26.6429  -34.8667 C   0  0  0  0  0  0  0  0  0  0  0  0
   -9.0046  -32.7136  -35.1867 C   0  0  0  0  0  0  0  0  0  0  0  0
   -8.0060  -32.6410  -34.2146 C   0  0  0  0  0  0  0  0  0  0  0  0
  -16.0776  -24.8078  -38.1098 C   0  0  0  0  0  0  0  0  0  0  0  0
  -12.4946  -27.0865  -35.4664 C   0  0  0  0  0  0  0  0  0  0  0  0
  -11.1659  -28.7133  -33.6305 C   0  0  0  0  0  0  0  0  0  0  0  0
  -18.5510  -23.9682  -39.0894 C   0  0  0  0  0  0  0  0  0  0  0  0
  -17.3740  -23.4959  -39.6702 C   0  0  0  0  0  0  0  0  0  0  0  0
   -9.8686  -31.6426  -33.5637 C   0  0  0  0  0  0  0  0  0  0  0  0
   -7.9838  -31.6031  -31.9421 C   0  0  0  0  0  0  0  0  0  0  0  0
  -14.5694  -26.1388  -36.5695 C   0  0  0  0  0  0  0  0  0  0  0  0
  -10.7418  -25.3014  -35.1885 C   0  0  0  0  0  0  0  0  0  0  0  0
   -6.0633  -30.8309  -29.9507 C   0  0  0  0  0  0  0  0  0  0  0  0
   -7.0804  -33.1227  -29.8008 C   0  0  0  0  0  0  0  0  0  0  0  0
   -4.7636  -32.8408  -30.7288 C   0  0  0  0  0  0  0  0  0  0  0  0
  -10.8500  -30.8967  -32.7425 C   0  0  0  0  0  0  0  0  0  0  0  0
   -6.1500  -32.2118  -30.5990 C   0  0  0  0  0  0  0  0  0  0  0  0
  -10.1480  -32.0907  -34.7646 N   0  0  0  0  0  0  0  0  0  0  0  0
   -8.5818  -31.9401  -33.1616 N   0  0  0  0  0  0  0  0  0  0  0  0
  -14.8234  -25.2335  -37.6122 N   0  0  0  0  0  0  0  0  0  0  0  0
  -13.1736  -26.2874  -36.3897 N   0  0  0  0  0  0  0  0  0  0  0  0
   -8.5916  -30.9811  -31.0865 O   0  0  0  0  0  0  0  0  0  0  0  0
  -15.4254  -26.7183  -35.9088 O   0  0  0  0  0  0  0  0  0  0  0  0
  -10.5144  -29.5111  -32.7294 O   0  0  0  0  0  0  0  0  0  0  0  0
   -6.7086  -32.0659  -31.9079 O   0  0  0  0  0  0  0  0  0  0  0  0
  -20.1132  -23.4880  -39.6527 Cl  0  0  0  0  0  0  0  0  0  0  0  0
  -17.3830  -22.3912  -41.0001 Cl  0  0  0  0  0  0  0  0  0  0  0  0
   -7.2779  -34.4481  -37.5473 H   0  0  0  0  0  0  0  0  0  0  0  0
   -5.5285  -34.3076  -35.8133 H   0  0  0  0  0  0  0  0  0  0  0  0
   -9.5128  -33.4365  -37.1719 H   0  0  0  0  0  0  0  0  0  0  0  0
   -5.9548  -33.1600  -33.6685 H   0  0  0  0  0  0  0  0  0  0  0  0
  -13.9263  -28.7003  -35.6099 H   0  0  0  0  0  0  0  0  0  0  0  0
  -17.2193  -25.9744  -36.6933 H   0  0  0  0  0  0  0  0  0  0  0  0
  -12.7505  -30.1347  -33.9860 H   0  0  0  0  0  0  0  0  0  0  0  0
  -19.3984  -25.2375  -37.5530 H   0  0  0  0  0  0  0  0  0  0  0  0
   -9.7323  -27.1135  -33.4799 H   0  0  0  0  0  0  0  0  0  0  0  0
  -15.2157  -23.5518  -39.6301 H   0  0  0  0  0  0  0  0  0  0  0  0
  -10.0501  -25.3784  -36.0351 H   0  0  0  0  0  0  0  0  0  0  0  0
  -11.5310  -24.5845  -35.4451 H   0  0  0  0  0  0  0  0  0  0  0  0
  -10.1998  -24.8869  -34.3298 H   0  0  0  0  0  0  0  0  0  0  0  0
   -5.3964  -30.1741  -30.5206 H   0  0  0  0  0  0  0  0  0  0  0  0
   -7.0467  -30.3543  -29.8835 H   0  0  0  0  0  0  0  0  0  0  0  0
   -5.6418  -30.8986  -28.9411 H   0  0  0  0  0  0  0  0  0  0  0  0
   -7.1456  -34.1146  -30.2623 H   0  0  0  0  0  0  0  0  0  0  0  0
   -8.1003  -32.7218  -29.7853 H   0  0  0  0  0  0  0  0  0  0  0  0
   -6.7393  -33.2429  -28.7674 H   0  0  0  0  0  0  0  0  0  0  0  0
   -4.8256  -33.8314  -31.1938 H   0  0  0  0  0  0  0  0  0  0  0  0
   -4.0930  -32.2182  -31.3299 H   0  0  0  0  0  0  0  0  0  0  0  0
   -4.3095  -32.9901  -29.7425 H   0  0  0  0  0  0  0  0  0  0  0  0
  -11.8754  -30.9982  -33.1344 H   0  0  0  0  0  0  0  0  0  0  0  0
  -10.8677  -31.2581  -31.7012 H   0  0  0  0  0  0  0  0  0  0  0  0
  -14.0052  -24.8346  -38.0655 H   0  0  0  0  0  0  0  0  0  0  0  0
  -12.5935  -25.7307  -37.0249 H   0  0  0  0  0  0  0  0  0  0  0  0
  1  2  2  0  0  0  0
  1  3  1  0  0  0  0
  2  4  1  0  0  0  0
  3 12  2  0  0  0  0
  4 13  2  0  0  0  0
  5  7  1  0  0  0  0
  5 15  2  0  0  0  0
  6  8  1  0  0  0  0
  6 14  2  0  0  0  0
  7 16  2  0  0  0  0
  8 17  2  0  0  0  0
  9 11  2  0  0  0  0
  9 16  1  0  0  0  0
 10 14  1  0  0  0  0
 10 18  2  0  0  0  0
 11 15  1  0  0  0  0
 11 22  1  0  0  0  0
 12 13  1  0  0  0  0
 12 28  1  0  0  0  0
 13 29  1  0  0  0  0
 14 30  1  0  0  0  0
 15 31  1  0  0  0  0
 16 34  1  0  0  0  0
 17 18  1  0  0  0  0
 17 36  1  0  0  0  0
 18 37  1  0  0  0  0
 19 26  1  0  0  0  0
 19 28  2  0  0  0  0
 19 29  1  0  0  0  0
 20 29  1  0  0  0  0
 20 32  2  0  0  0  0
 20 35  1  0  0  0  0
 21 30  1  0  0  0  0
 21 31  1  0  0  0  0
 21 33  2  0  0  0  0
 23 27  1  0  0  0  0
 24 27  1  0  0  0  0
 25 27  1  0  0  0  0
 26 34  1  0  0  0  0
 27 35  1  0  0  0  0
  1 38  1  0  0  0  0
  2 39  1  0  0  0  0
  3 40  1  0  0  0  0
  4 41  1  0  0  0  0
  5 42  1  0  0  0  0
  6 43  1  0  0  0  0
  7 44  1  0  0  0  0
  8 45  1  0  0  0  0
  9 46  1  0  0  0  0
 10 47  1  0  0  0  0
 22 48  1  0  0  0  0
 22 49  1  0  0  0  0
 22 50  1  0  0  0  0
 23 51  1  0  0  0  0
 23 52  1  0  0  0  0
 23 53  1  0  0  0  0
 24 54  1  0  0  0  0
 24 55  1  0  0  0  0
 24 56  1  0  0  0  0
 25 57  1  0  0  0  0
 25 58  1  0  0  0  0
 25 59  1  0  0  0  0
 26 60  1  0  0  0  0
 26 61  1  0  0  0  0
 30 62  1  0  0  0  0
 31 63  1  0  0  0  0
M  END
> <SourceTag>
EZ_12

> <Clean Energy>
28.3989

> <Activity_sEH>
0.7

> <Activity_FLAP>
3.7

> <Gold.Version>
5.2

> <Gold.Id.Protein>
6HGV|6HGV_protein|mol2

> <Gold.PLP.Fitness>
84.7965

> <Gold.PLP.PLP>
-83.0253

> <Gold.PLP.part.hbond>
-6.6332

> <Gold.PLP.part.metal>
0.0000

> <Gold.PLP.part.buried>
5.0250

> <Gold.PLP.part.nonpolar>
-80.2524

> <Gold.PLP.part.repulsive>
0.0994

> <Gold.PLP.ligand.clash>
0.5838

> <Gold.PLP.ligand.torsion>
1.2615

> <Gold.PLP.Chemscore.Hbond>
0.9434

> <Gold.PLP.Chemscore.CHOScore>
0.0000

> <Gold.PLP.Chemscore.Metal>
0.0000

> <Gold.Chemscore.Hbonds>
donor molecule, donor type, donor heavy atom, donor atom, acceptor molecule, acceptor atom, score
      L1  H    30    62       P1  1931  0.76
      L1  H    31    63       P1  1931  0.02
      P1  H  1247  3847       L1    33  0.16

> <Gold.PLP.Chemscore.Internal.Correction>
0.4657

> <Gold.Protein.RotatedTorsions>
[ 3525  925  924  922 ] final -167.56 input   59.99 | X-H torsion
[ 3781 1176 1175 1172 ] final  118.72 input   60.00 | X-H torsion
[ 4531 1957 1955 1953 ] final  -58.91 input   60.00 | X-H torsion
[ 3847 1247 1246 1244 ] final  -37.66 input   60.00 | X-H torsion
[ 4507 1931 1930 1928 ] final -167.29 input   60.00 | X-H torsion
[ 3677 1070 1069 1066 ] final    0.61 input   60.00 | X-H torsion

> <Gold.Protein.ActiveResidues>
 GLY266  PHE267  PRO268  GLU269  MET310  HIS334  ASP335  TRP336  GLY337  GLY338 
 MET339  LEU340  TRP342  TYR343  LEU358  ASN359  THR360  PRO361  ILE363  ALA365 
 MET369  SER370  PRO371  LEU372  GLU373  SER374  ILE375  LYS376  ALA377  ASN378 
 VAL380  PHE381  ASP382  TYR383  GLN384  PHE387  GLN388  LEU397  SER407  LEU408 
 PHE409  ARG410  LEU417  MET419  LEU428  PHE429  PHE459  TRP465  TYR466  ASN468 
 MET469  GLU470  ASN472  TRP473  ALA476  ASP496  PHE497  VAL498  LEU499  MET503 
 HIS524  TRP525 

> <Gold.Protein.RotatedAtoms>
   -2.3584  -30.1982  -29.2490 H   0  0  0  0  0  0  0  0  0  0  0  0  # atno 3525 bound_to 925 
  -12.8097  -23.2488  -30.6007 H   0  0  0  0  0  0  0  0  0  0  0  0  # atno 3677 bound_to 1070
   -9.8573  -37.0944  -32.3719 H   0  0  0  0  0  0  0  0  0  0  0  0  # atno 3781 bound_to 1176
  -16.0333  -28.2112  -37.1218 H   0  0  0  0  0  0  0  0  0  0  0  0  # atno 3847 bound_to 1247
  -13.0079  -23.9345  -40.3137 H   0  0  0  0  0  0  0  0  0  0  0  0  # atno 4507 bound_to 1931
   -1.9966  -32.2132  -36.8476 H   0  0  0  0  0  0  0  0  0  0  0  0  # atno 4531 bound_to 1957
   -2.6230  -29.9403  -30.8338 LP  0  0  0  0  0  0  0  0  0  0  0  0  # atno 5201 bound_to 925 
   -3.7656  -29.5426  -29.7369 LP  0  0  0  0  0  0  0  0  0  0  0  0  # atno 5202 bound_to 925 
  -10.8020  -37.2278  -33.6901 LP  0  0  0  0  0  0  0  0  0  0  0  0  # atno 5205 bound_to 1176
   -9.4526  -36.3094  -33.7386 LP  0  0  0  0  0  0  0  0  0  0  0  0  # atno 5206 bound_to 1176
   -1.4844  -33.7530  -36.9692 LP  0  0  0  0  0  0  0  0  0  0  0  0  # atno 5213 bound_to 1957
   -3.0567  -33.4342  -36.6648 LP  0  0  0  0  0  0  0  0  0  0  0  0  # atno 5214 bound_to 1957
  -14.9750  -27.2519  -37.9014 LP  0  0  0  0  0  0  0  0  0  0  0  0  # atno 5227 bound_to 1247
  -14.5502  -28.7731  -37.4863 LP  0  0  0  0  0  0  0  0  0  0  0  0  # atno 5228 bound_to 1247
  -12.5443  -24.4878  -38.8553 LP  0  0  0  0  0  0  0  0  0  0  0  0  # atno 5245 bound_to 1931
  -13.6430  -25.3163  -39.7345 LP  0  0  0  0  0  0  0  0  0  0  0  0  # atno 5246 bound_to 1931
  -11.4681  -23.5886  -31.4568 LP  0  0  0  0  0  0  0  0  0  0  0  0  # atno 5265 bound_to 1070
  -11.5702  -22.1944  -30.6126 LP  0  0  0  0  0  0  0  0  0  0  0  0  # atno 5266 bound_to 1070

$$$$
EZ_12|Lisa_paper2_min|sdf|1|dock9
  -GOLD-  10202014243D 1   1.00000     0.00000

 63 66  0  0  0  0  0  0  0  0  1 V2000
   -5.1003  -32.4537  -35.4968 C   0  0  0  0  0  0  0  0  0  0  0  0
   -5.1447  -33.5713  -34.6658 C   0  0  0  0  0  0  0  0  0  0  0  0
   -6.1283  -31.5067  -35.4752 C   0  0  0  0  0  0  0  0  0  0  0  0
   -6.2141  -33.7795  -33.7877 C   0  0  0  0  0  0  0  0  0  0  0  0
  -12.7218  -28.4311  -35.1402 C   0  0  0  0  0  0  0  0  0  0  0  0
  -17.0599  -25.2548  -37.2753 C   0  0  0  0  0  0  0  0  0  0  0  0
  -12.0347  -29.2605  -34.2539 C   0  0  0  0  0  0  0  0  0  0  0  0
  -18.3080  -24.8377  -37.7377 C   0  0  0  0  0  0  0  0  0  0  0  0
  -10.4121  -27.5111  -33.8746 C   0  0  0  0  0  0  0  0  0  0  0  0
  -15.9875  -24.0065  -39.0441 C   0  0  0  0  0  0  0  0  0  0  0  0
  -11.0991  -26.6817  -34.7610 C   0  0  0  0  0  0  0  0  0  0  0  0
   -7.2108  -31.7006  -34.5989 C   0  0  0  0  0  0  0  0  0  0  0  0
   -7.2411  -32.8246  -33.7724 C   0  0  0  0  0  0  0  0  0  0  0  0
  -15.8996  -24.8391  -37.9285 C   0  0  0  0  0  0  0  0  0  0  0  0
  -12.2539  -27.1417  -35.3938 C   0  0  0  0  0  0  0  0  0  0  0  0
  -10.8798  -28.8006  -33.6210 C   0  0  0  0  0  0  0  0  0  0  0  0
  -18.3959  -24.0051  -38.8534 C   0  0  0  0  0  0  0  0  0  0  0  0
  -17.2356  -23.5895  -39.5066 C   0  0  0  0  0  0  0  0  0  0  0  0
   -9.0167  -31.5383  -33.4851 C   0  0  0  0  0  0  0  0  0  0  0  0
   -8.9154  -33.5895  -32.0830 C   0  0  0  0  0  0  0  0  0  0  0  0
  -14.3546  -26.1915  -36.4443 C   0  0  0  0  0  0  0  0  0  0  0  0
  -10.5747  -25.3054  -35.0135 C   0  0  0  0  0  0  0  0  0  0  0  0
   -6.9428  -36.2704  -30.5692 C   0  0  0  0  0  0  0  0  0  0  0  0
   -7.7321  -34.0814  -29.6233 C   0  0  0  0  0  0  0  0  0  0  0  0
   -9.4065  -35.8152  -30.3293 C   0  0  0  0  0  0  0  0  0  0  0  0
  -10.3077  -31.0179  -32.9791 C   0  0  0  0  0  0  0  0  0  0  0  0
   -8.0356  -35.2034  -30.6140 C   0  0  0  0  0  0  0  0  0  0  0  0
   -8.3175  -30.9186  -34.4061 N   0  0  0  0  0  0  0  0  0  0  0  0
   -8.4233  -32.7069  -33.0511 N   0  0  0  0  0  0  0  0  0  0  0  0
  -14.6336  -25.2618  -37.4587 N   0  0  0  0  0  0  0  0  0  0  0  0
  -12.9549  -26.3269  -36.2863 N   0  0  0  0  0  0  0  0  0  0  0  0
   -9.9729  -33.3810  -31.5117 O   0  0  0  0  0  0  0  0  0  0  0  0
  -15.1946  -26.7996  -35.7886 O   0  0  0  0  0  0  0  0  0  0  0  0
  -10.2061  -29.6142  -32.7509 O   0  0  0  0  0  0  0  0  0  0  0  0
   -8.0565  -34.6279  -31.9236 O   0  0  0  0  0  0  0  0  0  0  0  0
  -19.9711  -23.5255  -39.3793 Cl  0  0  0  0  0  0  0  0  0  0  0  0
  -17.2797  -22.5601  -40.8949 Cl  0  0  0  0  0  0  0  0  0  0  0  0
   -4.2583  -32.3157  -36.1697 H   0  0  0  0  0  0  0  0  0  0  0  0
   -4.3345  -34.2955  -34.6995 H   0  0  0  0  0  0  0  0  0  0  0  0
   -6.0872  -30.6386  -36.1258 H   0  0  0  0  0  0  0  0  0  0  0  0
   -6.2248  -34.6569  -33.1519 H   0  0  0  0  0  0  0  0  0  0  0  0
  -13.6201  -28.8010  -35.6284 H   0  0  0  0  0  0  0  0  0  0  0  0
  -17.0024  -25.9022  -36.4040 H   0  0  0  0  0  0  0  0  0  0  0  0
  -12.4044  -30.2638  -34.0601 H   0  0  0  0  0  0  0  0  0  0  0  0
  -19.2016  -25.1702  -37.2153 H   0  0  0  0  0  0  0  0  0  0  0  0
   -9.5113  -27.1556  -33.3800 H   0  0  0  0  0  0  0  0  0  0  0  0
  -15.0788  -23.6867  -39.5503 H   0  0  0  0  0  0  0  0  0  0  0  0
   -9.8727  -25.3158  -35.8550 H   0  0  0  0  0  0  0  0  0  0  0  0
  -11.3889  -24.6082  -35.2451 H   0  0  0  0  0  0  0  0  0  0  0  0
  -10.0574  -24.9111  -34.1304 H   0  0  0  0  0  0  0  0  0  0  0  0
   -7.1569  -37.0775  -31.2788 H   0  0  0  0  0  0  0  0  0  0  0  0
   -5.9595  -35.8510  -30.8059 H   0  0  0  0  0  0  0  0  0  0  0  0
   -6.8910  -36.7359  -29.5782 H   0  0  0  0  0  0  0  0  0  0  0  0
   -8.5137  -33.3136  -29.6520 H   0  0  0  0  0  0  0  0  0  0  0  0
   -6.7939  -33.5768  -29.8806 H   0  0  0  0  0  0  0  0  0  0  0  0
   -7.6534  -34.4579  -28.5982 H   0  0  0  0  0  0  0  0  0  0  0  0
  -10.1905  -35.0501  -30.3615 H   0  0  0  0  0  0  0  0  0  0  0  0
   -9.6571  -36.5975  -31.0533 H   0  0  0  0  0  0  0  0  0  0  0  0
   -9.4385  -36.2487  -29.3232 H   0  0  0  0  0  0  0  0  0  0  0  0
  -11.1292  -31.1913  -33.6935 H   0  0  0  0  0  0  0  0  0  0  0  0
  -10.5988  -31.5019  -32.0325 H   0  0  0  0  0  0  0  0  0  0  0  0
  -13.8266  -24.8404  -37.9114 H   0  0  0  0  0  0  0  0  0  0  0  0
  -12.3902  -25.7458  -36.9136 H   0  0  0  0  0  0  0  0  0  0  0  0
  1  2  2  0  0  0  0
  1  3  1  0  0  0  0
  2  4  1  0  0  0  0
  3 12  2  0  0  0  0
  4 13  2  0  0  0  0
  5  7  1  0  0  0  0
  5 15  2  0  0  0  0
  6  8  1  0  0  0  0
  6 14  2  0  0  0  0
  7 16  2  0  0  0  0
  8 17  2  0  0  0  0
  9 11  2  0  0  0  0
  9 16  1  0  0  0  0
 10 14  1  0  0  0  0
 10 18  2  0  0  0  0
 11 15  1  0  0  0  0
 11 22  1  0  0  0  0
 12 13  1  0  0  0  0
 12 28  1  0  0  0  0
 13 29  1  0  0  0  0
 14 30  1  0  0  0  0
 15 31  1  0  0  0  0
 16 34  1  0  0  0  0
 17 18  1  0  0  0  0
 17 36  1  0  0  0  0
 18 37  1  0  0  0  0
 19 26  1  0  0  0  0
 19 28  2  0  0  0  0
 19 29  1  0  0  0  0
 20 29  1  0  0  0  0
 20 32  2  0  0  0  0
 20 35  1  0  0  0  0
 21 30  1  0  0  0  0
 21 31  1  0  0  0  0
 21 33  2  0  0  0  0
 23 27  1  0  0  0  0
 24 27  1  0  0  0  0
 25 27  1  0  0  0  0
 26 34  1  0  0  0  0
 27 35  1  0  0  0  0
  1 38  1  0  0  0  0
  2 39  1  0  0  0  0
  3 40  1  0  0  0  0
  4 41  1  0  0  0  0
  5 42  1  0  0  0  0
  6 43  1  0  0  0  0
  7 44  1  0  0  0  0
  8 45  1  0  0  0  0
  9 46  1  0  0  0  0
 10 47  1  0  0  0  0
 22 48  1  0  0  0  0
 22 49  1  0  0  0  0
 22 50  1  0  0  0  0
 23 51  1  0  0  0  0
 23 52  1  0  0  0  0
 23 53  1  0  0  0  0
 24 54  1  0  0  0  0
 24 55  1  0  0  0  0
 24 56  1  0  0  0  0
 25 57  1  0  0  0  0
 25 58  1  0  0  0  0
 25 59  1  0  0  0  0
 26 60  1  0  0  0  0
 26 61  1  0  0  0  0
 30 62  1  0  0  0  0
 31 63  1  0  0  0  0
M  END
> <SourceTag>
EZ_12

> <Clean Energy>
28.3989

> <Activity_sEH>
0.7

> <Activity_FLAP>
3.7

> <Gold.Version>
5.2

> <Gold.Id.Protein>
6HGV|6HGV_protein|mol2

> <Gold.PLP.Fitness>
81.2113

> <Gold.PLP.PLP>
-79.2296

> <Gold.PLP.part.hbond>
-6.6599

> <Gold.PLP.part.metal>
0.0000

> <Gold.PLP.part.buried>
4.9633

> <Gold.PLP.part.nonpolar>
-77.3158

> <Gold.PLP.part.repulsive>
0.0754

> <Gold.PLP.ligand.clash>
0.0000

> <Gold.PLP.ligand.torsion>
1.6329

> <Gold.PLP.Chemscore.Hbond>
0.9451

> <Gold.PLP.Chemscore.CHOScore>
0.0000

> <Gold.PLP.Chemscore.Metal>
0.0000

> <Gold.Chemscore.Hbonds>
donor molecule, donor type, donor heavy atom, donor atom, acceptor molecule, acceptor atom, score
      L1  H    30    62       P1  1931  0.78
      P1  H  1247  3847       L1    33  0.17

> <Gold.PLP.Chemscore.Internal.Correction>
0.4579

> <Gold.Protein.RotatedTorsions>
[ 3525  925  924  922 ] final  149.60 input   59.99 | X-H torsion
[ 3781 1176 1175 1172 ] final -133.77 input   60.00 | X-H torsion
[ 4531 1957 1955 1953 ] final -103.26 input   60.00 | X-H torsion
[ 3847 1247 1246 1244 ] final  -33.58 input   60.00 | X-H torsion
[ 4507 1931 1930 1928 ] final -154.28 input   60.00 | X-H torsion
[ 3677 1070 1069 1066 ] final  133.14 input   60.00 | X-H torsion

> <Gold.Protein.ActiveResidues>
 GLY266  PHE267  PRO268  GLU269  MET310  HIS334  ASP335  TRP336  GLY337  GLY338 
 MET339  LEU340  TRP342  TYR343  LEU358  ASN359  THR360  PRO361  ILE363  ALA365 
 MET369  SER370  PRO371  LEU372  GLU373  SER374  ILE375  LYS376  ALA377  ASN378 
 VAL380  PHE381  ASP382  TYR383  GLN384  PHE387  GLN388  LEU397  SER407  LEU408 
 PHE409  ARG410  LEU417  MET419  LEU428  PHE429  PHE459  TRP465  TYR466  ASN468 
 MET469  GLU470  ASN472  TRP473  ALA476  ASP496  PHE497  VAL498  LEU499  MET503 
 HIS524  TRP525 

> <Gold.Protein.RotatedAtoms>
   -2.0611  -30.2718  -29.8604 H   0  0  0  0  0  0  0  0  0  0  0  0  # atno 3525 bound_to 925 
  -11.4133  -22.2627  -30.7256 H   0  0  0  0  0  0  0  0  0  0  0  0  # atno 3677 bound_to 1070
   -9.3521  -36.3120  -33.5606 H   0  0  0  0  0  0  0  0  0  0  0  0  # atno 3781 bound_to 1176
  -16.0138  -28.2730  -37.1058 H   0  0  0  0  0  0  0  0  0  0  0  0  # atno 3847 bound_to 1247
  -13.1511  -24.0580  -40.4097 H   0  0  0  0  0  0  0  0  0  0  0  0  # atno 4507 bound_to 1931
   -1.4184  -32.6026  -36.9643 H   0  0  0  0  0  0  0  0  0  0  0  0  # atno 4531 bound_to 1957
   -3.2544  -29.6692  -30.7883 LP  0  0  0  0  0  0  0  0  0  0  0  0  # atno 5201 bound_to 925 
   -3.4335  -29.7395  -29.1667 LP  0  0  0  0  0  0  0  0  0  0  0  0  # atno 5202 bound_to 925 
  -10.0301  -37.2035  -32.3801 LP  0  0  0  0  0  0  0  0  0  0  0  0  # atno 5205 bound_to 1176
  -10.7334  -37.1216  -33.8516 LP  0  0  0  0  0  0  0  0  0  0  0  0  # atno 5206 bound_to 1176
   -2.1108  -34.0713  -36.8556 LP  0  0  0  0  0  0  0  0  0  0  0  0  # atno 5213 bound_to 1957
   -3.0126  -32.7239  -36.6609 LP  0  0  0  0  0  0  0  0  0  0  0  0  # atno 5214 bound_to 1957
  -15.0367  -27.2309  -37.8852 LP  0  0  0  0  0  0  0  0  0  0  0  0  # atno 5227 bound_to 1247
  -14.5081  -28.7318  -37.5186 LP  0  0  0  0  0  0  0  0  0  0  0  0  # atno 5228 bound_to 1247
  -12.4753  -24.3098  -38.9510 LP  0  0  0  0  0  0  0  0  0  0  0  0  # atno 5245 bound_to 1931
  -13.5677  -25.3700  -39.5420 LP  0  0  0  0  0  0  0  0  0  0  0  0  # atno 5246 bound_to 1931
  -12.8088  -23.0691  -30.5018 LP  0  0  0  0  0  0  0  0  0  0  0  0  # atno 5265 bound_to 1070
  -11.6357  -23.7069  -31.4418 LP  0  0  0  0  0  0  0  0  0  0  0  0  # atno 5266 bound_to 1070

$$$$
EZ_14|Lisa_paper2_min|sdf|2|dock10
  -GOLD-  10202014253D 1   1.00000     0.00000

 48 51  0  0  0  0  0  0  0  0  1 V2000
   -3.2281  -32.1693  -33.0427 C   0  0  0  0  0  0  0  0  0  0  0  0
   -3.5876  -33.3159  -33.7548 C   0  0  0  0  0  0  0  0  0  0  0  0
   -4.0230  -31.0168  -33.0821 C   0  0  0  0  0  0  0  0  0  0  0  0
   -4.7511  -33.3537  -34.5303 C   0  0  0  0  0  0  0  0  0  0  0  0
  -11.6936  -27.8081  -36.1430 C   0  0  0  0  0  0  0  0  0  0  0  0
  -17.6427  -25.0959  -36.7450 C   0  0  0  0  0  0  0  0  0  0  0  0
  -10.4522  -28.4313  -36.0167 C   0  0  0  0  0  0  0  0  0  0  0  0
  -18.6885  -24.7697  -37.6085 C   0  0  0  0  0  0  0  0  0  0  0  0
   -9.8912  -26.9447  -34.1967 C   0  0  0  0  0  0  0  0  0  0  0  0
  -16.0460  -24.5751  -38.4817 C   0  0  0  0  0  0  0  0  0  0  0  0
  -11.1326  -26.3214  -34.3231 C   0  0  0  0  0  0  0  0  0  0  0  0
   -5.1954  -31.0370  -33.8563 C   0  0  0  0  0  0  0  0  0  0  0  0
   -5.5273  -32.1946  -34.5547 C   0  0  0  0  0  0  0  0  0  0  0  0
  -16.3215  -24.9985  -37.1816 C   0  0  0  0  0  0  0  0  0  0  0  0
  -12.0339  -26.7532  -35.2962 C   0  0  0  0  0  0  0  0  0  0  0  0
   -9.5509  -27.9996  -35.0435 C   0  0  0  0  0  0  0  0  0  0  0  0
  -18.4130  -24.3462  -38.9087 C   0  0  0  0  0  0  0  0  0  0  0  0
  -17.0917  -24.2489  -39.3453 C   0  0  0  0  0  0  0  0  0  0  0  0
   -7.0241  -30.5954  -34.8665 C   0  0  0  0  0  0  0  0  0  0  0  0
  -14.0763  -26.0208  -36.6042 C   0  0  0  0  0  0  0  0  0  0  0  0
  -11.4698  -25.1939  -33.4023 C   0  0  0  0  0  0  0  0  0  0  0  0
   -8.2429  -29.9546  -35.3945 C   0  0  0  0  0  0  0  0  0  0  0  0
   -6.1368  -30.0547  -34.0619 N   0  0  0  0  0  0  0  0  0  0  0  0
   -6.7012  -31.8835  -35.1917 N   0  0  0  0  0  0  0  0  0  0  0  0
  -15.2609  -25.3289  -36.3051 N   0  0  0  0  0  0  0  0  0  0  0  0
  -13.2812  -26.1405  -35.4397 N   0  0  0  0  0  0  0  0  0  0  0  0
  -13.7700  -26.4587  -37.7086 O   0  0  0  0  0  0  0  0  0  0  0  0
   -8.3339  -28.6111  -34.9193 O   0  0  0  0  0  0  0  0  0  0  0  0
  -19.7519  -23.9595  -39.9315 Cl  0  0  0  0  0  0  0  0  0  0  0  0
  -16.6870  -23.7326  -40.9449 Cl  0  0  0  0  0  0  0  0  0  0  0  0
   -2.3179  -32.1708  -32.4483 H   0  0  0  0  0  0  0  0  0  0  0  0
   -2.9507  -34.1958  -33.7069 H   0  0  0  0  0  0  0  0  0  0  0  0
   -3.7351  -30.1315  -32.5242 H   0  0  0  0  0  0  0  0  0  0  0  0
   -5.0322  -34.2431  -35.0827 H   0  0  0  0  0  0  0  0  0  0  0  0
  -12.3875  -28.1526  -36.9060 H   0  0  0  0  0  0  0  0  0  0  0  0
  -17.8683  -25.4234  -35.7334 H   0  0  0  0  0  0  0  0  0  0  0  0
  -10.1932  -29.2528  -36.6791 H   0  0  0  0  0  0  0  0  0  0  0  0
  -19.7120  -24.8500  -37.2508 H   0  0  0  0  0  0  0  0  0  0  0  0
   -9.1862  -26.6102  -33.4394 H   0  0  0  0  0  0  0  0  0  0  0  0
  -15.0133  -24.5023  -38.8170 H   0  0  0  0  0  0  0  0  0  0  0  0
  -11.1520  -24.2401  -33.8387 H   0  0  0  0  0  0  0  0  0  0  0  0
  -12.5486  -25.1490  -33.2103 H   0  0  0  0  0  0  0  0  0  0  0  0
  -10.9766  -25.3160  -32.4302 H   0  0  0  0  0  0  0  0  0  0  0  0
   -8.2543  -29.9252  -36.4988 H   0  0  0  0  0  0  0  0  0  0  0  0
   -9.1585  -30.4890  -35.0842 H   0  0  0  0  0  0  0  0  0  0  0  0
   -7.2317  -32.4996  -35.7935 H   0  0  0  0  0  0  0  0  0  0  0  0
  -15.3703  -25.0285  -35.3399 H   0  0  0  0  0  0  0  0  0  0  0  0
  -13.6827  -25.7195  -34.5961 H   0  0  0  0  0  0  0  0  0  0  0  0
  1  2  2  0  0  0  0
  1  3  1  0  0  0  0
  2  4  1  0  0  0  0
  3 12  2  0  0  0  0
  4 13  2  0  0  0  0
  5  7  1  0  0  0  0
  5 15  2  0  0  0  0
  6  8  1  0  0  0  0
  6 14  2  0  0  0  0
  7 16  2  0  0  0  0
  8 17  2  0  0  0  0
  9 11  2  0  0  0  0
  9 16  1  0  0  0  0
 10 14  1  0  0  0  0
 10 18  2  0  0  0  0
 11 15  1  0  0  0  0
 11 21  1  0  0  0  0
 12 13  1  0  0  0  0
 12 23  1  0  0  0  0
 13 24  1  0  0  0  0
 14 25  1  0  0  0  0
 15 26  1  0  0  0  0
 16 28  1  0  0  0  0
 17 18  1  0  0  0  0
 17 29  1  0  0  0  0
 18 30  1  0  0  0  0
 19 22  1  0  0  0  0
 19 23  2  0  0  0  0
 19 24  1  0  0  0  0
 20 25  1  0  0  0  0
 20 26  1  0  0  0  0
 20 27  2  0  0  0  0
 22 28  1  0  0  0  0
  1 31  1  0  0  0  0
  2 32  1  0  0  0  0
  3 33  1  0  0  0  0
  4 34  1  0  0  0  0
  5 35  1  0  0  0  0
  6 36  1  0  0  0  0
  7 37  1  0  0  0  0
  8 38  1  0  0  0  0
  9 39  1  0  0  0  0
 10 40  1  0  0  0  0
 21 41  1  0  0  0  0
 21 42  1  0  0  0  0
 21 43  1  0  0  0  0
 22 44  1  0  0  0  0
 22 45  1  0  0  0  0
 24 46  1  0  0  0  0
 25 47  1  0  0  0  0
 26 48  1  0  0  0  0
M  END
> <Name>
EZ_14

> <SourceTag>
EZ_14

> <Activity_FLAP>
0.7

> <Activity_sEH>
56.9

> <Gold.Version>
5.2

> <Gold.Id.Protein>
6HGV|6HGV_protein|mol2

> <Gold.PLP.Fitness>
83.1491

> <Gold.PLP.PLP>
-77.3104

> <Gold.PLP.part.hbond>
-6.4816

> <Gold.PLP.part.metal>
0.0000

> <Gold.PLP.part.buried>
10.1422

> <Gold.PLP.part.nonpolar>
-81.1942

> <Gold.PLP.part.repulsive>
0.0555

> <Gold.PLP.ligand.clash>
0.0000

> <Gold.PLP.ligand.torsion>
0.8806

> <Gold.PLP.Chemscore.Hbond>
1.9018

> <Gold.PLP.Chemscore.CHOScore>
0.0000

> <Gold.PLP.Chemscore.Metal>
0.0000

> <Gold.Chemscore.Hbonds>
donor molecule, donor type, donor heavy atom, donor atom, acceptor molecule, acceptor atom, score
      L1  H    25    47       P1   853  0.25
      L1  H    26    48       P1   853  0.08
      P1  H  1256  3855       L1    27  0.02
      P1  H  1247  3847       L1    27  0.56
      P1  H  1931  4507       L1    27  0.99

> <Gold.PLP.Chemscore.Internal.Correction>
0.3672

> <Gold.Protein.RotatedTorsions>
[ 3525  925  924  922 ] final  -46.86 input   59.99 | X-H torsion
[ 3781 1176 1175 1172 ] final   17.58 input   60.00 | X-H torsion
[ 4531 1957 1955 1953 ] final   -5.18 input   60.00 | X-H torsion
[ 3847 1247 1246 1244 ] final  159.52 input   60.00 | X-H torsion
[ 4507 1931 1930 1928 ] final   -5.72 input   60.00 | X-H torsion
[ 3677 1070 1069 1066 ] final  168.89 input   60.00 | X-H torsion

> <Gold.Protein.ActiveResidues>
 GLY266  PHE267  PRO268  GLU269  MET310  HIS334  ASP335  TRP336  GLY337  GLY338 
 MET339  LEU340  TRP342  TYR343  LEU358  ASN359  THR360  PRO361  ILE363  ALA365 
 MET369  SER370  PRO371  LEU372  GLU373  SER374  ILE375  LYS376  ALA377  ASN378 
 VAL380  PHE381  ASP382  TYR383  GLN384  PHE387  GLN388  LEU397  SER407  LEU408 
 PHE409  ARG410  LEU417  MET419  LEU428  PHE429  PHE459  TRP465  TYR466  ASN468 
 MET469  GLU470  ASN472  TRP473  ALA476  ASP496  PHE497  VAL498  LEU499  MET503 
 HIS524  TRP525 

> <Gold.Protein.RotatedAtoms>
   -3.7605  -29.5411  -29.7492 H   0  0  0  0  0  0  0  0  0  0  0  0  # atno 3525 bound_to 925 
  -11.1216  -22.6174  -31.0711 H   0  0  0  0  0  0  0  0  0  0  0  0  # atno 3677 bound_to 1070
  -10.8296  -37.3540  -33.4105 H   0  0  0  0  0  0  0  0  0  0  0  0  # atno 3781 bound_to 1176
  -14.4537  -27.6963  -37.9388 H   0  0  0  0  0  0  0  0  0  0  0  0  # atno 3847 bound_to 1247
  -13.3159  -25.3403  -39.1540 H   0  0  0  0  0  0  0  0  0  0  0  0  # atno 4507 bound_to 1931
   -2.7980  -32.4409  -36.6992 H   0  0  0  0  0  0  0  0  0  0  0  0  # atno 4531 bound_to 1957
   -2.3634  -30.1996  -29.2367 LP  0  0  0  0  0  0  0  0  0  0  0  0  # atno 5201 bound_to 925 
   -2.6131  -29.9449  -30.8303 LP  0  0  0  0  0  0  0  0  0  0  0  0  # atno 5202 bound_to 925 
   -9.6604  -36.3649  -33.9606 LP  0  0  0  0  0  0  0  0  0  0  0  0  # atno 5205 bound_to 1176
   -9.6151  -36.9109  -32.4222 LP  0  0  0  0  0  0  0  0  0  0  0  0  # atno 5206 bound_to 1176
   -1.2737  -32.9277  -36.9950 LP  0  0  0  0  0  0  0  0  0  0  0  0  # atno 5213 bound_to 1957
   -2.4604  -34.0303  -36.7884 LP  0  0  0  0  0  0  0  0  0  0  0  0  # atno 5214 bound_to 1957
  -15.1375  -28.9645  -37.1825 LP  0  0  0  0  0  0  0  0  0  0  0  0  # atno 5227 bound_to 1247
  -15.9784  -27.5791  -37.3824 LP  0  0  0  0  0  0  0  0  0  0  0  0  # atno 5228 bound_to 1247
  -13.4443  -24.4095  -40.4826 LP  0  0  0  0  0  0  0  0  0  0  0  0  # atno 5245 bound_to 1931
  -12.4328  -23.9789  -39.2751 LP  0  0  0  0  0  0  0  0  0  0  0  0  # atno 5246 bound_to 1931
  -12.5714  -22.5689  -30.3336 LP  0  0  0  0  0  0  0  0  0  0  0  0  # atno 5265 bound_to 1070
  -12.1669  -23.8499  -31.2620 LP  0  0  0  0  0  0  0  0  0  0  0  0  # atno 5266 bound_to 1070

$$$$
EZ_14|Lisa_paper2_min|sdf|2|dock1
  -GOLD-  10202014243D 1   1.00000     0.00000

 48 51  0  0  0  0  0  0  0  0  1 V2000
   -3.3003  -32.4633  -33.5105 C   0  0  0  0  0  0  0  0  0  0  0  0
   -3.8969  -33.5625  -34.1326 C   0  0  0  0  0  0  0  0  0  0  0  0
   -3.8895  -31.1940  -33.5683 C   0  0  0  0  0  0  0  0  0  0  0  0
   -5.1007  -33.4348  -34.8334 C   0  0  0  0  0  0  0  0  0  0  0  0
  -11.6524  -27.6800  -36.1232 C   0  0  0  0  0  0  0  0  0  0  0  0
  -17.5747  -24.9482  -36.9333 C   0  0  0  0  0  0  0  0  0  0  0  0
  -10.4319  -28.3266  -35.9289 C   0  0  0  0  0  0  0  0  0  0  0  0
  -18.5974  -24.6605  -37.8371 C   0  0  0  0  0  0  0  0  0  0  0  0
   -9.9901  -26.9176  -34.0167 C   0  0  0  0  0  0  0  0  0  0  0  0
  -15.9379  -24.6136  -38.6786 C   0  0  0  0  0  0  0  0  0  0  0  0
  -11.2106  -26.2709  -34.2112 C   0  0  0  0  0  0  0  0  0  0  0  0
   -5.0990  -31.0475  -34.2682 C   0  0  0  0  0  0  0  0  0  0  0  0
   -5.6693  -32.1615  -34.8778 C   0  0  0  0  0  0  0  0  0  0  0  0
  -16.2449  -24.9246  -37.3540 C   0  0  0  0  0  0  0  0  0  0  0  0
  -12.0418  -26.6522  -35.2644 C   0  0  0  0  0  0  0  0  0  0  0  0
   -9.6007  -27.9455  -34.8756 C   0  0  0  0  0  0  0  0  0  0  0  0
  -18.2903  -24.3494  -39.1618 C   0  0  0  0  0  0  0  0  0  0  0  0
  -16.9605  -24.3260  -39.5825 C   0  0  0  0  0  0  0  0  0  0  0  0
   -6.8919  -30.3442  -35.1905 C   0  0  0  0  0  0  0  0  0  0  0  0
  -14.0415  -25.9651  -36.6601 C   0  0  0  0  0  0  0  0  0  0  0  0
  -11.6015  -25.1733  -33.2756 C   0  0  0  0  0  0  0  0  0  0  0  0
   -8.0182  -29.5278  -35.6804 C   0  0  0  0  0  0  0  0  0  0  0  0
   -5.8725  -29.9281  -34.4731 N   0  0  0  0  0  0  0  0  0  0  0  0
   -6.8148  -31.6823  -35.4600 N   0  0  0  0  0  0  0  0  0  0  0  0
  -15.2078  -25.2159  -36.4366 N   0  0  0  0  0  0  0  0  0  0  0  0
  -13.2670  -26.0154  -35.4767 N   0  0  0  0  0  0  0  0  0  0  0  0
  -13.7337  -26.4991  -37.7209 O   0  0  0  0  0  0  0  0  0  0  0  0
   -8.4043  -28.5799  -34.6847 O   0  0  0  0  0  0  0  0  0  0  0  0
  -19.6019  -24.0054  -40.2341 Cl  0  0  0  0  0  0  0  0  0  0  0  0
  -16.5171  -23.9499  -41.2106 Cl  0  0  0  0  0  0  0  0  0  0  0  0
   -2.3647  -32.5943  -32.9728 H   0  0  0  0  0  0  0  0  0  0  0  0
   -3.4162  -34.5359  -34.0726 H   0  0  0  0  0  0  0  0  0  0  0  0
   -3.4182  -30.3468  -33.0806 H   0  0  0  0  0  0  0  0  0  0  0  0
   -5.5656  -34.2869  -35.3159 H   0  0  0  0  0  0  0  0  0  0  0  0
  -12.2915  -27.9852  -36.9483 H   0  0  0  0  0  0  0  0  0  0  0  0
  -17.8248  -25.1878  -35.9030 H   0  0  0  0  0  0  0  0  0  0  0  0
  -10.1344  -29.1269  -36.6011 H   0  0  0  0  0  0  0  0  0  0  0  0
  -19.6279  -24.6820  -37.4914 H   0  0  0  0  0  0  0  0  0  0  0  0
   -9.3396  -26.6224  -33.1968 H   0  0  0  0  0  0  0  0  0  0  0  0
  -14.8987  -24.5982  -39.0012 H   0  0  0  0  0  0  0  0  0  0  0  0
  -11.2398  -24.2091  -33.6503 H   0  0  0  0  0  0  0  0  0  0  0  0
  -12.6910  -25.1189  -33.1628 H   0  0  0  0  0  0  0  0  0  0  0  0
  -11.1841  -25.3391  -32.2749 H   0  0  0  0  0  0  0  0  0  0  0  0
   -7.7610  -28.9696  -36.5984 H   0  0  0  0  0  0  0  0  0  0  0  0
   -8.9010  -30.1453  -35.9242 H   0  0  0  0  0  0  0  0  0  0  0  0
   -7.4822  -32.2249  -35.9924 H   0  0  0  0  0  0  0  0  0  0  0  0
  -15.3212  -24.8361  -35.5002 H   0  0  0  0  0  0  0  0  0  0  0  0
  -13.6668  -25.5163  -34.6760 H   0  0  0  0  0  0  0  0  0  0  0  0
  1  2  2  0  0  0  0
  1  3  1  0  0  0  0
  2  4  1  0  0  0  0
  3 12  2  0  0  0  0
  4 13  2  0  0  0  0
  5  7  1  0  0  0  0
  5 15  2  0  0  0  0
  6  8  1  0  0  0  0
  6 14  2  0  0  0  0
  7 16  2  0  0  0  0
  8 17  2  0  0  0  0
  9 11  2  0  0  0  0
  9 16  1  0  0  0  0
 10 14  1  0  0  0  0
 10 18  2  0  0  0  0
 11 15  1  0  0  0  0
 11 21  1  0  0  0  0
 12 13  1  0  0  0  0
 12 23  1  0  0  0  0
 13 24  1  0  0  0  0
 14 25  1  0  0  0  0
 15 26  1  0  0  0  0
 16 28  1  0  0  0  0
 17 18  1  0  0  0  0
 17 29  1  0  0  0  0
 18 30  1  0  0  0  0
 19 22  1  0  0  0  0
 19 23  2  0  0  0  0
 19 24  1  0  0  0  0
 20 25  1  0  0  0  0
 20 26  1  0  0  0  0
 20 27  2  0  0  0  0
 22 28  1  0  0  0  0
  1 31  1  0  0  0  0
  2 32  1  0  0  0  0
  3 33  1  0  0  0  0
  4 34  1  0  0  0  0
  5 35  1  0  0  0  0
  6 36  1  0  0  0  0
  7 37  1  0  0  0  0
  8 38  1  0  0  0  0
  9 39  1  0  0  0  0
 10 40  1  0  0  0  0
 21 41  1  0  0  0  0
 21 42  1  0  0  0  0
 21 43  1  0  0  0  0
 22 44  1  0  0  0  0
 22 45  1  0  0  0  0
 24 46  1  0  0  0  0
 25 47  1  0  0  0  0
 26 48  1  0  0  0  0
M  END
> <Name>
EZ_14

> <SourceTag>
EZ_14

> <Activity_FLAP>
0.7

> <Activity_sEH>
56.9

> <Gold.Version>
5.2

> <Gold.Id.Protein>
6HGV|6HGV_protein|mol2

> <Gold.PLP.Fitness>
81.1180

> <Gold.PLP.PLP>
-75.5512

> <Gold.PLP.part.hbond>
-6.9145

> <Gold.PLP.part.metal>
0.0000

> <Gold.PLP.part.buried>
10.6474

> <Gold.PLP.part.nonpolar>
-80.4725

> <Gold.PLP.part.repulsive>
0.0499

> <Gold.PLP.ligand.clash>
1.5318

> <Gold.PLP.ligand.torsion>
0.7821

> <Gold.PLP.Chemscore.Hbond>
2.2464

> <Gold.PLP.Chemscore.CHOScore>
0.0000

> <Gold.PLP.Chemscore.Metal>
0.0000

> <Gold.Chemscore.Hbonds>
donor molecule, donor type, donor heavy atom, donor atom, acceptor molecule, acceptor atom, score
      L1  H    25    47       P1   853  0.39
      L1  H    26    48       P1   853  0.22
      P1  H  1256  3855       L1    27  0.05
      P1  H  1247  3847       L1    27  0.63
      P1  H  1931  4507       L1    27  0.95

> <Gold.PLP.Chemscore.Internal.Correction>
0.3779

> <Gold.Protein.RotatedTorsions>
[ 3525  925  924  922 ] final  -81.41 input   59.99 | X-H torsion
[ 3781 1176 1175 1172 ] final  109.45 input   60.00 | X-H torsion
[ 4531 1957 1955 1953 ] final  130.22 input   60.00 | X-H torsion
[ 3847 1247 1246 1244 ] final  155.61 input   60.00 | X-H torsion
[ 4507 1931 1930 1928 ] final  -10.50 input   60.00 | X-H torsion
[ 3677 1070 1069 1066 ] final  105.55 input   60.00 | X-H torsion

> <Gold.Protein.ActiveResidues>
 GLY266  PHE267  PRO268  GLU269  MET310  HIS334  ASP335  TRP336  GLY337  GLY338 
 MET339  LEU340  TRP342  TYR343  LEU358  ASN359  THR360  PRO361  ILE363  ALA365 
 MET369  SER370  PRO371  LEU372  GLU373  SER374  ILE375  LYS376  ALA377  ASN378 
 VAL380  PHE381  ASP382  TYR383  GLN384  PHE387  GLN388  LEU397  SER407  LEU408 
 PHE409  ARG410  LEU417  MET419  LEU428  PHE429  PHE459  TRP465  TYR466  ASN468 
 MET469  GLU470  ASN472  TRP473  ALA476  ASP496  PHE497  VAL498  LEU499  MET503 
 HIS524  TRP525 

> <Gold.Protein.RotatedAtoms>
   -3.5300  -29.6859  -29.2645 H   0  0  0  0  0  0  0  0  0  0  0  0  # atno 3525 bound_to 925 
  -11.7858  -22.1785  -30.4945 H   0  0  0  0  0  0  0  0  0  0  0  0  # atno 3677 bound_to 1070
   -9.9843  -37.1763  -32.3790 H   0  0  0  0  0  0  0  0  0  0  0  0  # atno 3781 bound_to 1176
  -14.4226  -27.7512  -37.9300 H   0  0  0  0  0  0  0  0  0  0  0  0  # atno 3847 bound_to 1247
  -13.3634  -25.3582  -39.2134 H   0  0  0  0  0  0  0  0  0  0  0  0  # atno 4507 bound_to 1931
   -2.2163  -34.0668  -36.8379 H   0  0  0  0  0  0  0  0  0  0  0  0  # atno 4531 bound_to 1957
   -2.0827  -30.2782  -29.7147 LP  0  0  0  0  0  0  0  0  0  0  0  0  # atno 5201 bound_to 925 
   -3.1259  -29.7205  -30.8404 LP  0  0  0  0  0  0  0  0  0  0  0  0  # atno 5202 bound_to 925 
  -10.7544  -37.1503  -33.8123 LP  0  0  0  0  0  0  0  0  0  0  0  0  # atno 5205 bound_to 1176
   -9.3724  -36.3044  -33.6092 LP  0  0  0  0  0  0  0  0  0  0  0  0  # atno 5206 bound_to 1176
   -2.9614  -32.6300  -36.6690 LP  0  0  0  0  0  0  0  0  0  0  0  0  # atno 5213 bound_to 1957
   -1.3585  -32.6907  -36.9748 LP  0  0  0  0  0  0  0  0  0  0  0  0  # atno 5214 bound_to 1957
  -15.1977  -28.9580  -37.1614 LP  0  0  0  0  0  0  0  0  0  0  0  0  # atno 5227 bound_to 1247
  -15.9495  -27.5303  -37.4125 LP  0  0  0  0  0  0  0  0  0  0  0  0  # atno 5228 bound_to 1247
  -13.4003  -24.3444  -40.4857 LP  0  0  0  0  0  0  0  0  0  0  0  0  # atno 5245 bound_to 1931
  -12.4290  -24.0260  -39.2121 LP  0  0  0  0  0  0  0  0  0  0  0  0  # atno 5246 bound_to 1931
  -12.7716  -23.4503  -30.7372 LP  0  0  0  0  0  0  0  0  0  0  0  0  # atno 5265 bound_to 1070
  -11.2977  -23.4105  -31.4391 LP  0  0  0  0  0  0  0  0  0  0  0  0  # atno 5266 bound_to 1070

$$$$
EZ_14|Lisa_paper2_min|sdf|2|dock5
  -GOLD-  10202014253D 1   1.00000     0.00000

 48 51  0  0  0  0  0  0  0  0  1 V2000
   -5.4003  -33.1171  -35.8039 C   0  0  0  0  0  0  0  0  0  0  0  0
   -4.8835  -31.8576  -35.4914 C   0  0  0  0  0  0  0  0  0  0  0  0
   -6.7029  -33.4746  -35.4335 C   0  0  0  0  0  0  0  0  0  0  0  0
   -5.6465  -30.9112  -34.7995 C   0  0  0  0  0  0  0  0  0  0  0  0
  -12.6910  -28.4574  -35.1565 C   0  0  0  0  0  0  0  0  0  0  0  0
  -17.0359  -25.2920  -37.3019 C   0  0  0  0  0  0  0  0  0  0  0  0
  -12.0124  -29.3028  -34.2789 C   0  0  0  0  0  0  0  0  0  0  0  0
  -18.2788  -24.8838  -37.7857 C   0  0  0  0  0  0  0  0  0  0  0  0
  -10.4462  -27.5311  -33.7835 C   0  0  0  0  0  0  0  0  0  0  0  0
  -15.9400  -23.9661  -38.9983 C   0  0  0  0  0  0  0  0  0  0  0  0
  -11.1248  -26.6857  -34.6612 C   0  0  0  0  0  0  0  0  0  0  0  0
   -7.4836  -32.5361  -34.7377 C   0  0  0  0  0  0  0  0  0  0  0  0
   -6.9408  -31.2890  -34.4407 C   0  0  0  0  0  0  0  0  0  0  0  0
  -15.8664  -24.8330  -37.9081 C   0  0  0  0  0  0  0  0  0  0  0  0
  -12.2473  -27.1489  -35.3477 C   0  0  0  0  0  0  0  0  0  0  0  0
  -10.8899  -28.8396  -33.5922 C   0  0  0  0  0  0  0  0  0  0  0  0
  -18.3523  -24.0168  -38.8760 C   0  0  0  0  0  0  0  0  0  0  0  0
  -17.1828  -23.5579  -39.4823 C   0  0  0  0  0  0  0  0  0  0  0  0
   -9.0150  -31.4756  -33.6939 C   0  0  0  0  0  0  0  0  0  0  0  0
  -14.3365  -26.2046  -36.4258 C   0  0  0  0  0  0  0  0  0  0  0  0
  -10.6266  -25.2891  -34.8462 C   0  0  0  0  0  0  0  0  0  0  0  0
  -10.2657  -31.0643  -33.0292 C   0  0  0  0  0  0  0  0  0  0  0  0
   -8.7725  -32.6335  -34.2661 N   0  0  0  0  0  0  0  0  0  0  0  0
   -7.9422  -30.6318  -33.7731 N   0  0  0  0  0  0  0  0  0  0  0  0
  -14.6058  -25.2468  -37.4165 N   0  0  0  0  0  0  0  0  0  0  0  0
  -12.9392  -26.3180  -36.2324 N   0  0  0  0  0  0  0  0  0  0  0  0
  -15.1821  -26.8506  -35.8151 O   0  0  0  0  0  0  0  0  0  0  0  0
  -10.2249  -29.6684  -32.7313 O   0  0  0  0  0  0  0  0  0  0  0  0
  -19.9217  -23.5503  -39.4307 Cl  0  0  0  0  0  0  0  0  0  0  0  0
  -17.2091  -22.4844  -40.8372 Cl  0  0  0  0  0  0  0  0  0  0  0  0
   -4.7829  -33.8312  -36.3431 H   0  0  0  0  0  0  0  0  0  0  0  0
   -3.8684  -31.6079  -35.7902 H   0  0  0  0  0  0  0  0  0  0  0  0
   -7.0952  -34.4555  -35.6821 H   0  0  0  0  0  0  0  0  0  0  0  0
   -5.2474  -29.9330  -34.5571 H   0  0  0  0  0  0  0  0  0  0  0  0
  -13.5641  -28.8299  -35.6868 H   0  0  0  0  0  0  0  0  0  0  0  0
  -16.9898  -25.9666  -36.4508 H   0  0  0  0  0  0  0  0  0  0  0  0
  -12.3632  -30.3209  -34.1339 H   0  0  0  0  0  0  0  0  0  0  0  0
  -19.1798  -25.2503  -37.3000 H   0  0  0  0  0  0  0  0  0  0  0  0
   -9.5706  -27.1732  -33.2472 H   0  0  0  0  0  0  0  0  0  0  0  0
  -15.0242  -23.6124  -39.4679 H   0  0  0  0  0  0  0  0  0  0  0  0
   -9.8981  -25.2518  -35.6641 H   0  0  0  0  0  0  0  0  0  0  0  0
  -11.4499  -24.6030  -35.0789 H   0  0  0  0  0  0  0  0  0  0  0  0
  -10.1475  -24.9158  -33.9330 H   0  0  0  0  0  0  0  0  0  0  0  0
  -11.1540  -31.2509  -33.6590 H   0  0  0  0  0  0  0  0  0  0  0  0
  -10.4300  -31.6105  -32.0832 H   0  0  0  0  0  0  0  0  0  0  0  0
   -7.8932  -29.6903  -33.4066 H   0  0  0  0  0  0  0  0  0  0  0  0
  -13.7951  -24.7947  -37.8317 H   0  0  0  0  0  0  0  0  0  0  0  0
  -12.3691  -25.7053  -36.8237 H   0  0  0  0  0  0  0  0  0  0  0  0
  1  2  2  0  0  0  0
  1  3  1  0  0  0  0
  2  4  1  0  0  0  0
  3 12  2  0  0  0  0
  4 13  2  0  0  0  0
  5  7  1  0  0  0  0
  5 15  2  0  0  0  0
  6  8  1  0  0  0  0
  6 14  2  0  0  0  0
  7 16  2  0  0  0  0
  8 17  2  0  0  0  0
  9 11  2  0  0  0  0
  9 16  1  0  0  0  0
 10 14  1  0  0  0  0
 10 18  2  0  0  0  0
 11 15  1  0  0  0  0
 11 21  1  0  0  0  0
 12 13  1  0  0  0  0
 12 23  1  0  0  0  0
 13 24  1  0  0  0  0
 14 25  1  0  0  0  0
 15 26  1  0  0  0  0
 16 28  1  0  0  0  0
 17 18  1  0  0  0  0
 17 29  1  0  0  0  0
 18 30  1  0  0  0  0
 19 22  1  0  0  0  0
 19 23  2  0  0  0  0
 19 24  1  0  0  0  0
 20 25  1  0  0  0  0
 20 26  1  0  0  0  0
 20 27  2  0  0  0  0
 22 28  1  0  0  0  0
  1 31  1  0  0  0  0
  2 32  1  0  0  0  0
  3 33  1  0  0  0  0
  4 34  1  0  0  0  0
  5 35  1  0  0  0  0
  6 36  1  0  0  0  0
  7 37  1  0  0  0  0
  8 38  1  0  0  0  0
  9 39  1  0  0  0  0
 10 40  1  0  0  0  0
 21 41  1  0  0  0  0
 21 42  1  0  0  0  0
 21 43  1  0  0  0  0
 22 44  1  0  0  0  0
 22 45  1  0  0  0  0
 24 46  1  0  0  0  0
 25 47  1  0  0  0  0
 26 48  1  0  0  0  0
M  END
> <Name>
EZ_14

> <SourceTag>
EZ_14

> <Activity_FLAP>
0.7

> <Activity_sEH>
56.9

> <Gold.Version>
5.2

> <Gold.Id.Protein>
6HGV|6HGV_protein|mol2

> <Gold.PLP.Fitness>
80.1168

> <Gold.PLP.PLP>
-77.8352

> <Gold.PLP.part.hbond>
-6.3557

> <Gold.PLP.part.metal>
0.0000

> <Gold.PLP.part.buried>
5.3902

> <Gold.PLP.part.nonpolar>
-76.3517

> <Gold.PLP.part.repulsive>
0.0728

> <Gold.PLP.ligand.clash>
0.0000

> <Gold.PLP.ligand.torsion>
1.0617

> <Gold.PLP.Chemscore.Hbond>
0.8910

> <Gold.PLP.Chemscore.CHOScore>
0.0000

> <Gold.PLP.Chemscore.Metal>
0.0000

> <Gold.Chemscore.Hbonds>
donor molecule, donor type, donor heavy atom, donor atom, acceptor molecule, acceptor atom, score
      L1  H    25    47       P1  1931  0.67
      P1  H  1247  3847       L1    27  0.22

> <Gold.PLP.Chemscore.Internal.Correction>
0.3672

> <Gold.Protein.RotatedTorsions>
[ 3525  925  924  922 ] final   78.70 input   59.99 | X-H torsion
[ 3781 1176 1175 1172 ] final   43.67 input   60.00 | X-H torsion
[ 4531 1957 1955 1953 ] final  162.12 input   60.00 | X-H torsion
[ 3847 1247 1246 1244 ] final  -33.69 input   60.00 | X-H torsion
[ 4507 1931 1930 1928 ] final -169.55 input   60.00 | X-H torsion
[ 3677 1070 1069 1066 ] final   73.45 input   60.00 | X-H torsion

> <Gold.Protein.ActiveResidues>
 GLY266  PHE267  PRO268  GLU269  MET310  HIS334  ASP335  TRP336  GLY337  GLY338 
 MET339  LEU340  TRP342  TYR343  LEU358  ASN359  THR360  PRO361  ILE363  ALA365 
 MET369  SER370  PRO371  LEU372  GLU373  SER374  ILE375  LYS376  ALA377  ASN378 
 VAL380  PHE381  ASP382  TYR383  GLN384  PHE387  GLN388  LEU397  SER407  LEU408 
 PHE409  ARG410  LEU417  MET419  LEU428  PHE429  PHE459  TRP465  TYR466  ASN468 
 MET469  GLU470  ASN472  TRP473  ALA476  ASP496  PHE497  VAL498  LEU499  MET503 
 HIS524  TRP525 

> <Gold.Protein.RotatedAtoms>
   -2.5377  -29.9789  -30.7912 H   0  0  0  0  0  0  0  0  0  0  0  0  # atno 3525 bound_to 925 
  -12.2602  -22.3181  -30.3408 H   0  0  0  0  0  0  0  0  0  0  0  0  # atno 3677 bound_to 1070
  -10.7374  -37.4432  -33.0079 H   0  0  0  0  0  0  0  0  0  0  0  0  # atno 3781 bound_to 1176
  -16.0144  -28.2713  -37.1062 H   0  0  0  0  0  0  0  0  0  0  0  0  # atno 3847 bound_to 1247
  -12.9831  -23.9163  -40.2932 H   0  0  0  0  0  0  0  0  0  0  0  0  # atno 4507 bound_to 1931
   -1.7250  -33.9439  -36.9292 H   0  0  0  0  0  0  0  0  0  0  0  0  # atno 4531 bound_to 1957
   -3.7773  -29.5282  -29.8382 LP  0  0  0  0  0  0  0  0  0  0  0  0  # atno 5201 bound_to 925 
   -2.4306  -30.1755  -29.1794 LP  0  0  0  0  0  0  0  0  0  0  0  0  # atno 5202 bound_to 925 
  -10.0088  -36.5299  -34.1406 LP  0  0  0  0  0  0  0  0  0  0  0  0  # atno 5205 bound_to 1176
   -9.3596  -36.6560  -32.6476 LP  0  0  0  0  0  0  0  0  0  0  0  0  # atno 5206 bound_to 1176
   -3.1048  -33.1276  -36.6503 LP  0  0  0  0  0  0  0  0  0  0  0  0  # atno 5213 bound_to 1957
   -1.7098  -32.3169  -36.9015 LP  0  0  0  0  0  0  0  0  0  0  0  0  # atno 5214 bound_to 1957
  -15.0351  -27.2314  -37.8857 LP  0  0  0  0  0  0  0  0  0  0  0  0  # atno 5227 bound_to 1247
  -14.5092  -28.7330  -37.5177 LP  0  0  0  0  0  0  0  0  0  0  0  0  # atno 5228 bound_to 1247
  -12.5591  -24.5195  -38.8426 LP  0  0  0  0  0  0  0  0  0  0  0  0  # atno 5245 bound_to 1931
  -13.6531  -25.3030  -39.7678 LP  0  0  0  0  0  0  0  0  0  0  0  0  # atno 5246 bound_to 1931
  -12.4965  -23.7633  -31.0506 LP  0  0  0  0  0  0  0  0  0  0  0  0  # atno 5265 bound_to 1070
  -11.0952  -22.9569  -31.2804 LP  0  0  0  0  0  0  0  0  0  0  0  0  # atno 5266 bound_to 1070

$$$$
EZ_14|Lisa_paper2_min|sdf|2|dock6
  -GOLD-  10202014253D 1   1.00000     0.00000

 48 51  0  0  0  0  0  0  0  0  1 V2000
   -5.1044  -33.1974  -35.3196 C   0  0  0  0  0  0  0  0  0  0  0  0
   -4.7962  -31.8448  -35.4826 C   0  0  0  0  0  0  0  0  0  0  0  0
   -6.3290  -33.5971  -34.7700 C   0  0  0  0  0  0  0  0  0  0  0  0
   -5.6974  -30.8443  -35.1038 C   0  0  0  0  0  0  0  0  0  0  0  0
  -12.6785  -28.4626  -35.1866 C   0  0  0  0  0  0  0  0  0  0  0  0
  -17.0526  -25.2725  -37.2547 C   0  0  0  0  0  0  0  0  0  0  0  0
  -11.9888  -29.3102  -34.3198 C   0  0  0  0  0  0  0  0  0  0  0  0
  -18.3012  -24.8688  -37.7275 C   0  0  0  0  0  0  0  0  0  0  0  0
  -10.4235  -27.5361  -33.8305 C   0  0  0  0  0  0  0  0  0  0  0  0
  -15.9784  -24.0041  -39.0080 C   0  0  0  0  0  0  0  0  0  0  0  0
  -11.1132  -26.6885  -34.6975 C   0  0  0  0  0  0  0  0  0  0  0  0
   -7.2463  -32.6052  -34.3837 C   0  0  0  0  0  0  0  0  0  0  0  0
   -6.9106  -31.2656  -34.5587 C   0  0  0  0  0  0  0  0  0  0  0  0
  -15.8912  -24.8400  -37.8949 C   0  0  0  0  0  0  0  0  0  0  0  0
  -12.2407  -27.1518  -35.3755 C   0  0  0  0  0  0  0  0  0  0  0  0
  -10.8613  -28.8470  -33.6417 C   0  0  0  0  0  0  0  0  0  0  0  0
  -18.3885  -24.0327  -38.8406 C   0  0  0  0  0  0  0  0  0  0  0  0
  -17.2270  -23.6004  -39.4809 C   0  0  0  0  0  0  0  0  0  0  0  0
   -8.9215  -31.4934  -33.6648 C   0  0  0  0  0  0  0  0  0  0  0  0
  -14.3429  -26.2130  -36.4330 C   0  0  0  0  0  0  0  0  0  0  0  0
  -10.6211  -25.2895  -34.8802 C   0  0  0  0  0  0  0  0  0  0  0  0
  -10.2174  -31.0716  -33.1009 C   0  0  0  0  0  0  0  0  0  0  0  0
   -8.4989  -32.7270  -33.8274 N   0  0  0  0  0  0  0  0  0  0  0  0
   -8.0003  -30.5773  -34.0904 N   0  0  0  0  0  0  0  0  0  0  0  0
  -14.6247  -25.2493  -37.4145 N   0  0  0  0  0  0  0  0  0  0  0  0
  -12.9437  -26.3187  -36.2494 N   0  0  0  0  0  0  0  0  0  0  0  0
  -15.1803  -26.8692  -35.8219 O   0  0  0  0  0  0  0  0  0  0  0  0
  -10.1855  -29.6780  -32.7913 O   0  0  0  0  0  0  0  0  0  0  0  0
  -19.9643  -23.5701  -39.3801 Cl  0  0  0  0  0  0  0  0  0  0  0  0
  -17.2703  -22.5658  -40.8654 Cl  0  0  0  0  0  0  0  0  0  0  0  0
   -4.3835  -33.9519  -35.6241 H   0  0  0  0  0  0  0  0  0  0  0  0
   -3.8372  -31.5635  -35.9108 H   0  0  0  0  0  0  0  0  0  0  0  0
   -6.5590  -34.6508  -34.6486 H   0  0  0  0  0  0  0  0  0  0  0  0
   -5.4602  -29.7941  -35.2306 H   0  0  0  0  0  0  0  0  0  0  0  0
  -13.5555  -28.8352  -35.7105 H   0  0  0  0  0  0  0  0  0  0  0  0
  -16.9957  -25.9228  -36.3856 H   0  0  0  0  0  0  0  0  0  0  0  0
  -12.3351  -30.3302  -34.1766 H   0  0  0  0  0  0  0  0  0  0  0  0
  -19.1957  -25.2142  -37.2152 H   0  0  0  0  0  0  0  0  0  0  0  0
   -9.5439  -27.1782  -33.3009 H   0  0  0  0  0  0  0  0  0  0  0  0
  -15.0688  -23.6710  -39.5040 H   0  0  0  0  0  0  0  0  0  0  0  0
   -9.9006  -25.2457  -35.7049 H   0  0  0  0  0  0  0  0  0  0  0  0
  -11.4487  -24.6048  -35.1016 H   0  0  0  0  0  0  0  0  0  0  0  0
  -10.1344  -24.9192  -33.9697 H   0  0  0  0  0  0  0  0  0  0  0  0
  -11.0537  -31.2443  -33.8017 H   0  0  0  0  0  0  0  0  0  0  0  0
  -10.4638  -31.6212  -32.1750 H   0  0  0  0  0  0  0  0  0  0  0  0
   -8.1018  -29.5711  -34.0664 H   0  0  0  0  0  0  0  0  0  0  0  0
  -13.8197  -24.7888  -37.8313 H   0  0  0  0  0  0  0  0  0  0  0  0
  -12.3814  -25.6978  -36.8395 H   0  0  0  0  0  0  0  0  0  0  0  0
  1  2  2  0  0  0  0
  1  3  1  0  0  0  0
  2  4  1  0  0  0  0
  3 12  2  0  0  0  0
  4 13  2  0  0  0  0
  5  7  1  0  0  0  0
  5 15  2  0  0  0  0
  6  8  1  0  0  0  0
  6 14  2  0  0  0  0
  7 16  2  0  0  0  0
  8 17  2  0  0  0  0
  9 11  2  0  0  0  0
  9 16  1  0  0  0  0
 10 14  1  0  0  0  0
 10 18  2  0  0  0  0
 11 15  1  0  0  0  0
 11 21  1  0  0  0  0
 12 13  1  0  0  0  0
 12 23  1  0  0  0  0
 13 24  1  0  0  0  0
 14 25  1  0  0  0  0
 15 26  1  0  0  0  0
 16 28  1  0  0  0  0
 17 18  1  0  0  0  0
 17 29  1  0  0  0  0
 18 30  1  0  0  0  0
 19 22  1  0  0  0  0
 19 23  2  0  0  0  0
 19 24  1  0  0  0  0
 20 25  1  0  0  0  0
 20 26  1  0  0  0  0
 20 27  2  0  0  0  0
 22 28  1  0  0  0  0
  1 31  1  0  0  0  0
  2 32  1  0  0  0  0
  3 33  1  0  0  0  0
  4 34  1  0  0  0  0
  5 35  1  0  0  0  0
  6 36  1  0  0  0  0
  7 37  1  0  0  0  0
  8 38  1  0  0  0  0
  9 39  1  0  0  0  0
 10 40  1  0  0  0  0
 21 41  1  0  0  0  0
 21 42  1  0  0  0  0
 21 43  1  0  0  0  0
 22 44  1  0  0  0  0
 22 45  1  0  0  0  0
 24 46  1  0  0  0  0
 25 47  1  0  0  0  0
 26 48  1  0  0  0  0
M  END
> <Name>
EZ_14

> <SourceTag>
EZ_14

> <Activity_FLAP>
0.7

> <Activity_sEH>
56.9

> <Gold.Version>
5.2

> <Gold.Id.Protein>
6HGV|6HGV_protein|mol2

> <Gold.PLP.Fitness>
79.0048

> <Gold.PLP.PLP>
-76.8066

> <Gold.PLP.part.hbond>
-6.2960

> <Gold.PLP.part.metal>
0.0000

> <Gold.PLP.part.buried>
6.3826

> <Gold.PLP.part.nonpolar>
-76.2181

> <Gold.PLP.part.repulsive>
0.0706

> <Gold.PLP.ligand.clash>
0.0000

> <Gold.PLP.ligand.torsion>
1.1823

> <Gold.PLP.Chemscore.Hbond>
0.9022

> <Gold.PLP.Chemscore.CHOScore>
0.0000

> <Gold.PLP.Chemscore.Metal>
0.0000

> <Gold.Chemscore.Hbonds>
donor molecule, donor type, donor heavy atom, donor atom, acceptor molecule, acceptor atom, score
      L1  H    25    47       P1  1931  0.68
      P1  H  1247  3847       L1    27  0.22

> <Gold.PLP.Chemscore.Internal.Correction>
0.3672

> <Gold.Protein.RotatedTorsions>
[ 3525  925  924  922 ] final   60.99 input   59.99 | X-H torsion
[ 3781 1176 1175 1172 ] final   37.20 input   60.00 | X-H torsion
[ 4531 1957 1955 1953 ] final   47.02 input   60.00 | X-H torsion
[ 3847 1247 1246 1244 ] final  -35.11 input   60.00 | X-H torsion
[ 4507 1931 1930 1928 ] final -156.28 input   60.00 | X-H torsion
[ 3677 1070 1069 1066 ] final   64.87 input   60.00 | X-H torsion

> <Gold.Protein.ActiveResidues>
 GLY266  PHE267  PRO268  GLU269  MET310  HIS334  ASP335  TRP336  GLY337  GLY338 
 MET339  LEU340  TRP342  TYR343  LEU358  ASN359  THR360  PRO361  ILE363  ALA365 
 MET369  SER370  PRO371  LEU372  GLU373  SER374  ILE375  LYS376  ALA377  ASN378 
 VAL380  PHE381  ASP382  TYR383  GLN384  PHE387  GLN388  LEU397  SER407  LEU408 
 PHE409  ARG410  LEU417  MET419  LEU428  PHE429  PHE459  TRP465  TYR466  ASN468 
 MET469  GLU470  ASN472  TRP473  ALA476  ASP496  PHE497  VAL498  LEU499  MET503 
 HIS524  TRP525 

> <Gold.Protein.RotatedAtoms>
   -2.7904  -29.8619  -30.8657 H   0  0  0  0  0  0  0  0  0  0  0  0  # atno 3525 bound_to 925 
  -12.3765  -22.3948  -30.3273 H   0  0  0  0  0  0  0  0  0  0  0  0  # atno 3677 bound_to 1070
  -10.7749  -37.4315  -33.1060 H   0  0  0  0  0  0  0  0  0  0  0  0  # atno 3781 bound_to 1176
  -16.0216  -28.2498  -37.1116 H   0  0  0  0  0  0  0  0  0  0  0  0  # atno 3847 bound_to 1247
  -13.1292  -24.0371  -40.3974 H   0  0  0  0  0  0  0  0  0  0  0  0  # atno 4507 bound_to 1931
   -3.0961  -33.2075  -36.6558 H   0  0  0  0  0  0  0  0  0  0  0  0  # atno 4531 bound_to 1957
   -3.7179  -29.5796  -29.5587 LP  0  0  0  0  0  0  0  0  0  0  0  0  # atno 5201 bound_to 925 
   -2.2355  -30.2419  -29.3839 LP  0  0  0  0  0  0  0  0  0  0  0  0  # atno 5202 bound_to 925 
   -9.9190  -36.4808  -34.1118 LP  0  0  0  0  0  0  0  0  0  0  0  0  # atno 5205 bound_to 1176
   -9.4117  -36.7169  -32.5777 LP  0  0  0  0  0  0  0  0  0  0  0  0  # atno 5206 bound_to 1176
   -1.7797  -32.2793  -36.8876 LP  0  0  0  0  0  0  0  0  0  0  0  0  # atno 5213 bound_to 1957
   -1.6542  -33.9066  -36.9396 LP  0  0  0  0  0  0  0  0  0  0  0  0  # atno 5214 bound_to 1957
  -15.0134  -27.2383  -37.8916 LP  0  0  0  0  0  0  0  0  0  0  0  0  # atno 5227 bound_to 1247
  -14.5235  -28.7477  -37.5064 LP  0  0  0  0  0  0  0  0  0  0  0  0  # atno 5228 bound_to 1247
  -12.4840  -24.3366  -38.9338 LP  0  0  0  0  0  0  0  0  0  0  0  0  # atno 5245 bound_to 1931
  -13.5811  -25.3643  -39.5716 LP  0  0  0  0  0  0  0  0  0  0  0  0  # atno 5246 bound_to 1931
  -12.3899  -23.8104  -31.1299 LP  0  0  0  0  0  0  0  0  0  0  0  0  # atno 5265 bound_to 1070
  -11.0847  -22.8327  -31.2148 LP  0  0  0  0  0  0  0  0  0  0  0  0  # atno 5266 bound_to 1070

$$$$
EZ_14|Lisa_paper2_min|sdf|2|dock4
  -GOLD-  10202014253D 1   1.00000     0.00000

 48 51  0  0  0  0  0  0  0  0  1 V2000
   -5.9982  -33.1102  -35.6789 C   0  0  0  0  0  0  0  0  0  0  0  0
   -6.9696  -33.8468  -36.3607 C   0  0  0  0  0  0  0  0  0  0  0  0
   -6.3531  -32.2185  -34.6587 C   0  0  0  0  0  0  0  0  0  0  0  0
   -8.3275  -33.7205  -36.0496 C   0  0  0  0  0  0  0  0  0  0  0  0
  -12.9542  -28.3844  -35.0526 C   0  0  0  0  0  0  0  0  0  0  0  0
  -17.1394  -25.3015  -37.5209 C   0  0  0  0  0  0  0  0  0  0  0  0
  -12.3085  -29.1868  -34.1121 C   0  0  0  0  0  0  0  0  0  0  0  0
  -18.3660  -24.8597  -38.0166 C   0  0  0  0  0  0  0  0  0  0  0  0
  -10.5972  -27.5017  -33.8494 C   0  0  0  0  0  0  0  0  0  0  0  0
  -15.9895  -23.9388  -39.1511 C   0  0  0  0  0  0  0  0  0  0  0  0
  -11.2430  -26.6992  -34.7900 C   0  0  0  0  0  0  0  0  0  0  0  0
   -7.7128  -32.0790  -34.3331 C   0  0  0  0  0  0  0  0  0  0  0  0
   -8.6576  -32.8267  -35.0303 C   0  0  0  0  0  0  0  0  0  0  0  0
  -15.9511  -24.8410  -38.0880 C   0  0  0  0  0  0  0  0  0  0  0  0
  -12.4215  -27.1406  -35.3915 C   0  0  0  0  0  0  0  0  0  0  0  0
  -11.1299  -28.7455  -33.5104 C   0  0  0  0  0  0  0  0  0  0  0  0
  -18.4044  -23.9574  -39.0797 C   0  0  0  0  0  0  0  0  0  0  0  0
  -17.2161  -23.4970  -39.6470 C   0  0  0  0  0  0  0  0  0  0  0  0
   -9.6033  -31.5381  -33.5006 C   0  0  0  0  0  0  0  0  0  0  0  0
  -14.4737  -26.1659  -36.5129 C   0  0  0  0  0  0  0  0  0  0  0  0
  -10.6492  -25.3717  -35.1335 C   0  0  0  0  0  0  0  0  0  0  0  0
  -10.6942  -30.9413  -32.7077 C   0  0  0  0  0  0  0  0  0  0  0  0
   -8.3189  -31.2846  -33.3870 N   0  0  0  0  0  0  0  0  0  0  0  0
   -9.8577  -32.4607  -34.4770 N   0  0  0  0  0  0  0  0  0  0  0  0
  -14.7070  -25.2890  -37.5843 N   0  0  0  0  0  0  0  0  0  0  0  0
  -13.0819  -26.3522  -36.3372 N   0  0  0  0  0  0  0  0  0  0  0  0
  -15.3425  -26.6953  -35.8273 O   0  0  0  0  0  0  0  0  0  0  0  0
  -10.4971  -29.5321  -32.5879 O   0  0  0  0  0  0  0  0  0  0  0  0
  -19.9550  -23.4501  -39.6511 Cl  0  0  0  0  0  0  0  0  0  0  0  0
  -17.1987  -22.3806  -40.9670 Cl  0  0  0  0  0  0  0  0  0  0  0  0
   -4.9506  -33.2305  -35.9432 H   0  0  0  0  0  0  0  0  0  0  0  0
   -6.6652  -34.5306  -37.1494 H   0  0  0  0  0  0  0  0  0  0  0  0
   -5.5903  -31.6517  -34.1345 H   0  0  0  0  0  0  0  0  0  0  0  0
   -9.0825  -34.2921  -36.5770 H   0  0  0  0  0  0  0  0  0  0  0  0
  -13.8717  -28.7395  -35.5157 H   0  0  0  0  0  0  0  0  0  0  0  0
  -17.1207  -26.0035  -36.6912 H   0  0  0  0  0  0  0  0  0  0  0  0
  -12.7286  -30.1546  -33.8520 H   0  0  0  0  0  0  0  0  0  0  0  0
  -19.2821  -25.2279  -37.5614 H   0  0  0  0  0  0  0  0  0  0  0  0
   -9.6781  -27.1607  -33.3789 H   0  0  0  0  0  0  0  0  0  0  0  0
  -15.0592  -23.5841  -39.5903 H   0  0  0  0  0  0  0  0  0  0  0  0
   -9.9508  -25.4744  -35.9718 H   0  0  0  0  0  0  0  0  0  0  0  0
  -11.4271  -24.6506  -35.4120 H   0  0  0  0  0  0  0  0  0  0  0  0
  -10.1100  -24.9463  -34.2783 H   0  0  0  0  0  0  0  0  0  0  0  0
  -11.6844  -31.1073  -33.1685 H   0  0  0  0  0  0  0  0  0  0  0  0
  -10.7454  -31.3665  -31.6894 H   0  0  0  0  0  0  0  0  0  0  0  0
  -10.7673  -32.8129  -34.7450 H   0  0  0  0  0  0  0  0  0  0  0  0
  -13.8803  -24.9317  -38.0564 H   0  0  0  0  0  0  0  0  0  0  0  0
  -12.4895  -25.8361  -36.9949 H   0  0  0  0  0  0  0  0  0  0  0  0
  1  2  2  0  0  0  0
  1  3  1  0  0  0  0
  2  4  1  0  0  0  0
  3 12  2  0  0  0  0
  4 13  2  0  0  0  0
  5  7  1  0  0  0  0
  5 15  2  0  0  0  0
  6  8  1  0  0  0  0
  6 14  2  0  0  0  0
  7 16  2  0  0  0  0
  8 17  2  0  0  0  0
  9 11  2  0  0  0  0
  9 16  1  0  0  0  0
 10 14  1  0  0  0  0
 10 18  2  0  0  0  0
 11 15  1  0  0  0  0
 11 21  1  0  0  0  0
 12 13  1  0  0  0  0
 12 23  1  0  0  0  0
 13 24  1  0  0  0  0
 14 25  1  0  0  0  0
 15 26  1  0  0  0  0
 16 28  1  0  0  0  0
 17 18  1  0  0  0  0
 17 29  1  0  0  0  0
 18 30  1  0  0  0  0
 19 22  1  0  0  0  0
 19 23  2  0  0  0  0
 19 24  1  0  0  0  0
 20 25  1  0  0  0  0
 20 26  1  0  0  0  0
 20 27  2  0  0  0  0
 22 28  1  0  0  0  0
  1 31  1  0  0  0  0
  2 32  1  0  0  0  0
  3 33  1  0  0  0  0
  4 34  1  0  0  0  0
  5 35  1  0  0  0  0
  6 36  1  0  0  0  0
  7 37  1  0  0  0  0
  8 38  1  0  0  0  0
  9 39  1  0  0  0  0
 10 40  1  0  0  0  0
 21 41  1  0  0  0  0
 21 42  1  0  0  0  0
 21 43  1  0  0  0  0
 22 44  1  0  0  0  0
 22 45  1  0  0  0  0
 24 46  1  0  0  0  0
 25 47  1  0  0  0  0
 26 48  1  0  0  0  0
M  END
> <Name>
EZ_14

> <SourceTag>
EZ_14

> <Activity_FLAP>
0.7

> <Activity_sEH>
56.9

> <Gold.Version>
5.2

> <Gold.Id.Protein>
6HGV|6HGV_protein|mol2

> <Gold.PLP.Fitness>
78.9520

> <Gold.PLP.PLP>
-76.3144

> <Gold.PLP.part.hbond>
-6.8792

> <Gold.PLP.part.metal>
0.0000

> <Gold.PLP.part.buried>
4.3752

> <Gold.PLP.part.nonpolar>
-73.6917

> <Gold.PLP.part.repulsive>
0.0795

> <Gold.PLP.ligand.clash>
0.0000

> <Gold.PLP.ligand.torsion>
1.0872

> <Gold.PLP.Chemscore.Hbond>
1.0053

> <Gold.PLP.Chemscore.CHOScore>
0.0000

> <Gold.PLP.Chemscore.Metal>
0.0000

> <Gold.Chemscore.Hbonds>
donor molecule, donor type, donor heavy atom, donor atom, acceptor molecule, acceptor atom, score
      L1  H    25    47       P1  1931  0.88
      P1  H  1247  3847       L1    27  0.12

> <Gold.PLP.Chemscore.Internal.Correction>
0.3672

> <Gold.Protein.RotatedTorsions>
[ 3525  925  924  922 ] final -106.35 input   59.99 | X-H torsion
[ 3781 1176 1175 1172 ] final   23.05 input   60.00 | X-H torsion
[ 4531 1957 1955 1953 ] final  -46.25 input   60.00 | X-H torsion
[ 3847 1247 1246 1244 ] final  -37.37 input   60.00 | X-H torsion
[ 4507 1931 1930 1928 ] final -164.50 input   60.00 | X-H torsion
[ 3677 1070 1069 1066 ] final   51.85 input   60.00 | X-H torsion

> <Gold.Protein.ActiveResidues>
 GLY266  PHE267  PRO268  GLU269  MET310  HIS334  ASP335  TRP336  GLY337  GLY338 
 MET339  LEU340  TRP342  TYR343  LEU358  ASN359  THR360  PRO361  ILE363  ALA365 
 MET369  SER370  PRO371  LEU372  GLU373  SER374  ILE375  LYS376  ALA377  ASN378 
 VAL380  PHE381  ASP382  TYR383  GLN384  PHE387  GLN388  LEU397  SER407  LEU408 
 PHE409  ARG410  LEU417  MET419  LEU428  PHE429  PHE459  TRP465  TYR466  ASN468 
 MET469  GLU470  ASN472  TRP473  ALA476  ASP496  PHE497  VAL498  LEU499  MET503 
 HIS524  TRP525 

> <Gold.Protein.RotatedAtoms>
   -3.2203  -29.8401  -29.0552 H   0  0  0  0  0  0  0  0  0  0  0  0  # atno 3525 bound_to 925 
  -12.5342  -22.5369  -30.3308 H   0  0  0  0  0  0  0  0  0  0  0  0  # atno 3677 bound_to 1070
  -10.8235  -37.3816  -33.3259 H   0  0  0  0  0  0  0  0  0  0  0  0  # atno 3781 bound_to 1176
  -16.0320  -28.2156  -37.1206 H   0  0  0  0  0  0  0  0  0  0  0  0  # atno 3847 bound_to 1247
  -13.0386  -23.9584  -40.3374 H   0  0  0  0  0  0  0  0  0  0  0  0  # atno 4507 bound_to 1931
   -2.1986  -32.1954  -36.8089 H   0  0  0  0  0  0  0  0  0  0  0  0  # atno 4531 bound_to 1957
   -2.0607  -30.2507  -30.1204 LP  0  0  0  0  0  0  0  0  0  0  0  0  # atno 5201 bound_to 925 
   -3.4599  -29.5927  -30.6456 LP  0  0  0  0  0  0  0  0  0  0  0  0  # atno 5202 bound_to 925 
   -9.7292  -36.3916  -34.0118 LP  0  0  0  0  0  0  0  0  0  0  0  0  # atno 5205 bound_to 1176
   -9.5524  -36.8562  -32.4563 LP  0  0  0  0  0  0  0  0  0  0  0  0  # atno 5206 bound_to 1176
   -1.3669  -33.5826  -36.9886 LP  0  0  0  0  0  0  0  0  0  0  0  0  # atno 5213 bound_to 1957
   -2.9708  -33.6225  -36.6844 LP  0  0  0  0  0  0  0  0  0  0  0  0  # atno 5214 bound_to 1957
  -14.9793  -27.2503  -37.9004 LP  0  0  0  0  0  0  0  0  0  0  0  0  # atno 5227 bound_to 1247
  -14.5471  -28.7703  -37.4885 LP  0  0  0  0  0  0  0  0  0  0  0  0  # atno 5228 bound_to 1247
  -12.5271  -24.4490  -38.8725 LP  0  0  0  0  0  0  0  0  0  0  0  0  # atno 5245 bound_to 1931
  -13.6292  -25.3311  -39.6934 LP  0  0  0  0  0  0  0  0  0  0  0  0  # atno 5246 bound_to 1931
  -12.2101  -23.8475  -31.2394 LP  0  0  0  0  0  0  0  0  0  0  0  0  # atno 5265 bound_to 1070
  -11.1057  -22.6524  -31.1018 LP  0  0  0  0  0  0  0  0  0  0  0  0  # atno 5266 bound_to 1070

$$$$
EZ_14|Lisa_paper2_min|sdf|2|dock2
  -GOLD-  10202014243D 1   1.00000     0.00000

 48 51  0  0  0  0  0  0  0  0  1 V2000
   -7.0539  -33.8191  -36.3306 C   0  0  0  0  0  0  0  0  0  0  0  0
   -6.0711  -33.1809  -35.5705 C   0  0  0  0  0  0  0  0  0  0  0  0
   -8.4144  -33.6224  -36.0625 C   0  0  0  0  0  0  0  0  0  0  0  0
   -6.4100  -32.3248  -34.5174 C   0  0  0  0  0  0  0  0  0  0  0  0
  -12.9463  -28.3174  -35.0818 C   0  0  0  0  0  0  0  0  0  0  0  0
  -17.1172  -25.2162  -37.5399 C   0  0  0  0  0  0  0  0  0  0  0  0
  -12.3068  -29.1396  -34.1541 C   0  0  0  0  0  0  0  0  0  0  0  0
  -18.3406  -24.7850  -38.0527 C   0  0  0  0  0  0  0  0  0  0  0  0
  -10.6015  -27.4573  -33.8389 C   0  0  0  0  0  0  0  0  0  0  0  0
  -15.9566  -23.8501  -39.1597 C   0  0  0  0  0  0  0  0  0  0  0  0
  -11.2410  -26.6352  -34.7667 C   0  0  0  0  0  0  0  0  0  0  0  0
   -8.7730  -32.7657  -35.0081 C   0  0  0  0  0  0  0  0  0  0  0  0
   -7.7708  -32.1438  -34.2685 C   0  0  0  0  0  0  0  0  0  0  0  0
  -15.9251  -24.7486  -38.0933 C   0  0  0  0  0  0  0  0  0  0  0  0
  -12.4134  -27.0653  -35.3881 C   0  0  0  0  0  0  0  0  0  0  0  0
  -11.1344  -28.7095  -33.5326 C   0  0  0  0  0  0  0  0  0  0  0  0
  -18.3720  -23.8863  -39.1190 C   0  0  0  0  0  0  0  0  0  0  0  0
  -17.1799  -23.4188  -39.6726 C   0  0  0  0  0  0  0  0  0  0  0  0
   -9.7856  -31.5852  -33.5450 C   0  0  0  0  0  0  0  0  0  0  0  0
  -14.4583  -26.0975  -36.5287 C   0  0  0  0  0  0  0  0  0  0  0  0
  -10.6472  -25.2992  -35.0753 C   0  0  0  0  0  0  0  0  0  0  0  0
  -10.7928  -30.9122  -32.7036 C   0  0  0  0  0  0  0  0  0  0  0  0
  -10.0177  -32.4066  -34.5442 N   0  0  0  0  0  0  0  0  0  0  0  0
   -8.4474  -31.3951  -33.3399 N   0  0  0  0  0  0  0  0  0  0  0  0
  -14.6843  -25.1859  -37.5724 N   0  0  0  0  0  0  0  0  0  0  0  0
  -13.0675  -26.2572  -36.3214 N   0  0  0  0  0  0  0  0  0  0  0  0
  -15.3318  -26.6732  -35.8880 O   0  0  0  0  0  0  0  0  0  0  0  0
  -10.5077  -29.5154  -32.6225 O   0  0  0  0  0  0  0  0  0  0  0  0
  -19.9188  -23.3922  -39.7118 Cl  0  0  0  0  0  0  0  0  0  0  0  0
  -17.1539  -22.3064  -40.9958 Cl  0  0  0  0  0  0  0  0  0  0  0  0
   -6.7591  -34.4785  -37.1431 H   0  0  0  0  0  0  0  0  0  0  0  0
   -5.0225  -33.3534  -35.8002 H   0  0  0  0  0  0  0  0  0  0  0  0
   -9.1701  -34.1224  -36.6599 H   0  0  0  0  0  0  0  0  0  0  0  0
   -5.6486  -31.8279  -33.9271 H   0  0  0  0  0  0  0  0  0  0  0  0
  -13.8590  -28.6639  -35.5605 H   0  0  0  0  0  0  0  0  0  0  0  0
  -17.1039  -25.9154  -36.7078 H   0  0  0  0  0  0  0  0  0  0  0  0
  -12.7270  -30.1138  -33.9194 H   0  0  0  0  0  0  0  0  0  0  0  0
  -19.2596  -25.1585  -37.6080 H   0  0  0  0  0  0  0  0  0  0  0  0
   -9.6872  -27.1252  -33.3531 H   0  0  0  0  0  0  0  0  0  0  0  0
  -15.0233  -23.4899  -39.5881 H   0  0  0  0  0  0  0  0  0  0  0  0
   -9.9415  -25.3816  -35.9096 H   0  0  0  0  0  0  0  0  0  0  0  0
  -11.4243  -24.5735  -35.3442 H   0  0  0  0  0  0  0  0  0  0  0  0
  -10.1163  -24.8920  -34.2062 H   0  0  0  0  0  0  0  0  0  0  0  0
  -11.8157  -31.0269  -33.1047 H   0  0  0  0  0  0  0  0  0  0  0  0
  -10.8102  -31.3172  -31.6760 H   0  0  0  0  0  0  0  0  0  0  0  0
   -8.0282  -30.8073  -32.6314 H   0  0  0  0  0  0  0  0  0  0  0  0
  -13.8543  -24.7912  -38.0074 H   0  0  0  0  0  0  0  0  0  0  0  0
  -12.4706  -25.7022  -36.9425 H   0  0  0  0  0  0  0  0  0  0  0  0
  1  2  2  0  0  0  0
  1  3  1  0  0  0  0
  2  4  1  0  0  0  0
  3 12  2  0  0  0  0
  4 13  2  0  0  0  0
  5  7  1  0  0  0  0
  5 15  2  0  0  0  0
  6  8  1  0  0  0  0
  6 14  2  0  0  0  0
  7 16  2  0  0  0  0
  8 17  2  0  0  0  0
  9 11  2  0  0  0  0
  9 16  1  0  0  0  0
 10 14  1  0  0  0  0
 10 18  2  0  0  0  0
 11 15  1  0  0  0  0
 11 21  1  0  0  0  0
 12 13  1  0  0  0  0
 12 23  1  0  0  0  0
 13 24  1  0  0  0  0
 14 25  1  0  0  0  0
 15 26  1  0  0  0  0
 16 28  1  0  0  0  0
 17 18  1  0  0  0  0
 17 29  1  0  0  0  0
 18 30  1  0  0  0  0
 19 22  1  0  0  0  0
 19 23  2  0  0  0  0
 19 24  1  0  0  0  0
 20 25  1  0  0  0  0
 20 26  1  0  0  0  0
 20 27  2  0  0  0  0
 22 28  1  0  0  0  0
  1 31  1  0  0  0  0
  2 32  1  0  0  0  0
  3 33  1  0  0  0  0
  4 34  1  0  0  0  0
  5 35  1  0  0  0  0
  6 36  1  0  0  0  0
  7 37  1  0  0  0  0
  8 38  1  0  0  0  0
  9 39  1  0  0  0  0
 10 40  1  0  0  0  0
 21 41  1  0  0  0  0
 21 42  1  0  0  0  0
 21 43  1  0  0  0  0
 22 44  1  0  0  0  0
 22 45  1  0  0  0  0
 24 46  1  0  0  0  0
 25 47  1  0  0  0  0
 26 48  1  0  0  0  0
M  END
> <Name>
EZ_14

> <SourceTag>
EZ_14

> <Activity_FLAP>
0.7

> <Activity_sEH>
56.9

> <Gold.Version>
5.2

> <Gold.Id.Protein>
6HGV|6HGV_protein|mol2

> <Gold.PLP.Fitness>
78.7583

> <Gold.PLP.PLP>
-76.3377

> <Gold.PLP.part.hbond>
-6.7278

> <Gold.PLP.part.metal>
0.0000

> <Gold.PLP.part.buried>
3.9895

> <Gold.PLP.part.nonpolar>
-74.3784

> <Gold.PLP.part.repulsive>
0.0941

> <Gold.PLP.ligand.clash>
0.1589

> <Gold.PLP.ligand.torsion>
0.8971

> <Gold.PLP.Chemscore.Hbond>
0.9278

> <Gold.PLP.Chemscore.CHOScore>
0.0000

> <Gold.PLP.Chemscore.Metal>
0.0000

> <Gold.Chemscore.Hbonds>
donor molecule, donor type, donor heavy atom, donor atom, acceptor molecule, acceptor atom, score
      L1  H    25    47       P1  1931  0.73
      P1  H  1247  3847       L1    27  0.20

> <Gold.PLP.Chemscore.Internal.Correction>
0.3779

> <Gold.Protein.RotatedTorsions>
[ 3525  925  924  922 ] final  134.90 input   59.99 | X-H torsion
[ 3781 1176 1175 1172 ] final  113.74 input   60.00 | X-H torsion
[ 4531 1957 1955 1953 ] final   29.55 input   60.00 | X-H torsion
[ 3847 1247 1246 1244 ] final  -46.51 input   60.00 | X-H torsion
[ 4507 1931 1930 1928 ] final -173.26 input   60.00 | X-H torsion
[ 3677 1070 1069 1066 ] final   -5.88 input   60.00 | X-H torsion

> <Gold.Protein.ActiveResidues>
 GLY266  PHE267  PRO268  GLU269  MET310  HIS334  ASP335  TRP336  GLY337  GLY338 
 MET339  LEU340  TRP342  TYR343  LEU358  ASN359  THR360  PRO361  ILE363  ALA365 
 MET369  SER370  PRO371  LEU372  GLU373  SER374  ILE375  LYS376  ALA377  ASN378 
 VAL380  PHE381  ASP382  TYR383  GLN384  PHE387  GLN388  LEU397  SER407  LEU408 
 PHE409  ARG410  LEU417  MET419  LEU428  PHE429  PHE459  TRP465  TYR466  ASN468 
 MET469  GLU470  ASN472  TRP473  ALA476  ASP496  PHE497  VAL498  LEU499  MET503 
 HIS524  TRP525 

> <Gold.Protein.RotatedAtoms>
   -2.0630  -30.2492  -30.0988 H   0  0  0  0  0  0  0  0  0  0  0  0  # atno 3525 bound_to 925 
  -12.7976  -23.3376  -30.6573 H   0  0  0  0  0  0  0  0  0  0  0  0  # atno 3677 bound_to 1070
   -9.9251  -37.1392  -32.3728 H   0  0  0  0  0  0  0  0  0  0  0  0  # atno 3781 bound_to 1176
  -16.0607  -28.0755  -37.1630 H   0  0  0  0  0  0  0  0  0  0  0  0  # atno 3847 bound_to 1247
  -12.9427  -23.8886  -40.2575 H   0  0  0  0  0  0  0  0  0  0  0  0  # atno 4507 bound_to 1931
   -3.0754  -32.9240  -36.6548 H   0  0  0  0  0  0  0  0  0  0  0  0  # atno 4531 bound_to 1957
   -3.4451  -29.5979  -30.6589 LP  0  0  0  0  0  0  0  0  0  0  0  0  # atno 5201 bound_to 925 
   -3.2410  -29.8335  -29.0560 LP  0  0  0  0  0  0  0  0  0  0  0  0  # atno 5202 bound_to 925 
  -10.7789  -37.1872  -33.7573 LP  0  0  0  0  0  0  0  0  0  0  0  0  # atno 5205 bound_to 1176
   -9.4076  -36.3048  -33.6705 LP  0  0  0  0  0  0  0  0  0  0  0  0  # atno 5206 bound_to 1176
   -1.5472  -32.4397  -36.9346 LP  0  0  0  0  0  0  0  0  0  0  0  0  # atno 5213 bound_to 1957
   -1.9076  -34.0319  -36.8936 LP  0  0  0  0  0  0  0  0  0  0  0  0  # atno 5214 bound_to 1957
  -14.8454  -27.3116  -37.9295 LP  0  0  0  0  0  0  0  0  0  0  0  0  # atno 5227 bound_to 1247
  -14.6522  -28.8500  -37.4168 LP  0  0  0  0  0  0  0  0  0  0  0  0  # atno 5228 bound_to 1247
  -12.5852  -24.5717  -38.8245 LP  0  0  0  0  0  0  0  0  0  0  0  0  # atno 5245 bound_to 1931
  -13.6678  -25.2787  -39.8218 LP  0  0  0  0  0  0  0  0  0  0  0  0  # atno 5246 bound_to 1931
  -11.3899  -23.5160  -31.4539 LP  0  0  0  0  0  0  0  0  0  0  0  0  # atno 5265 bound_to 1070
  -11.6607  -22.1775  -30.5585 LP  0  0  0  0  0  0  0  0  0  0  0  0  # atno 5266 bound_to 1070

$$$$
EZ_14|Lisa_paper2_min|sdf|2|dock9
  -GOLD-  10202014253D 1   1.00000     0.00000

 48 51  0  0  0  0  0  0  0  0  1 V2000
   -7.0678  -33.9131  -36.3162 C   0  0  0  0  0  0  0  0  0  0  0  0
   -6.0953  -33.1043  -35.7237 C   0  0  0  0  0  0  0  0  0  0  0  0
   -8.4168  -33.8004  -35.9568 C   0  0  0  0  0  0  0  0  0  0  0  0
   -6.4333  -32.1555  -34.7530 C   0  0  0  0  0  0  0  0  0  0  0  0
  -12.9892  -28.3706  -35.1355 C   0  0  0  0  0  0  0  0  0  0  0  0
  -17.2446  -25.2880  -37.5019 C   0  0  0  0  0  0  0  0  0  0  0  0
  -12.3239  -29.1739  -34.2095 C   0  0  0  0  0  0  0  0  0  0  0  0
  -18.4816  -24.8583  -37.9824 C   0  0  0  0  0  0  0  0  0  0  0  0
  -10.6474  -27.4576  -33.9252 C   0  0  0  0  0  0  0  0  0  0  0  0
  -16.1293  -23.9482  -39.1745 C   0  0  0  0  0  0  0  0  0  0  0  0
  -11.3127  -26.6544  -34.8514 C   0  0  0  0  0  0  0  0  0  0  0  0
   -8.7743  -32.8525  -34.9832 C   0  0  0  0  0  0  0  0  0  0  0  0
   -7.7826  -32.0608  -34.4107 C   0  0  0  0  0  0  0  0  0  0  0  0
  -16.0684  -24.8329  -38.0979 C   0  0  0  0  0  0  0  0  0  0  0  0
  -12.4836  -27.1109  -35.4565 C   0  0  0  0  0  0  0  0  0  0  0  0
  -11.1530  -28.7175  -33.6042 C   0  0  0  0  0  0  0  0  0  0  0  0
  -18.5424  -23.9735  -39.0591 C   0  0  0  0  0  0  0  0  0  0  0  0
  -17.3662  -23.5185  -39.6552 C   0  0  0  0  0  0  0  0  0  0  0  0
   -9.7809  -31.5890  -33.5868 C   0  0  0  0  0  0  0  0  0  0  0  0
  -14.5589  -26.1534  -36.5498 C   0  0  0  0  0  0  0  0  0  0  0  0
  -10.7478  -25.3096  -35.1758 C   0  0  0  0  0  0  0  0  0  0  0  0
  -10.7810  -30.9042  -32.7465 C   0  0  0  0  0  0  0  0  0  0  0  0
  -10.0089  -32.5451  -34.4591 N   0  0  0  0  0  0  0  0  0  0  0  0
   -8.4550  -31.2622  -33.5215 N   0  0  0  0  0  0  0  0  0  0  0  0
  -14.8138  -25.2686  -37.6097 N   0  0  0  0  0  0  0  0  0  0  0  0
  -13.1632  -26.3220  -36.3880 N   0  0  0  0  0  0  0  0  0  0  0  0
  -15.4142  -26.7023  -35.8625 O   0  0  0  0  0  0  0  0  0  0  0  0
  -10.5011  -29.5049  -32.6957 O   0  0  0  0  0  0  0  0  0  0  0  0
  -20.1048  -23.4806  -39.6103 Cl  0  0  0  0  0  0  0  0  0  0  0  0
  -17.3766  -22.4236  -40.9931 Cl  0  0  0  0  0  0  0  0  0  0  0  0
   -6.7741  -34.6412  -37.0682 H   0  0  0  0  0  0  0  0  0  0  0  0
   -5.0554  -33.2147  -36.0212 H   0  0  0  0  0  0  0  0  0  0  0  0
   -9.1646  -34.4330  -36.4241 H   0  0  0  0  0  0  0  0  0  0  0  0
   -5.6801  -31.5263  -34.2929 H   0  0  0  0  0  0  0  0  0  0  0  0
  -13.9005  -28.7376  -35.6016 H   0  0  0  0  0  0  0  0  0  0  0  0
  -17.2084  -25.9764  -36.6615 H   0  0  0  0  0  0  0  0  0  0  0  0
  -12.7230  -30.1542  -33.9633 H   0  0  0  0  0  0  0  0  0  0  0  0
  -19.3879  -25.2221  -37.5047 H   0  0  0  0  0  0  0  0  0  0  0  0
   -9.7342  -27.1049  -33.4520 H   0  0  0  0  0  0  0  0  0  0  0  0
  -15.2083  -23.5976  -39.6362 H   0  0  0  0  0  0  0  0  0  0  0  0
  -10.0499  -25.3846  -36.0175 H   0  0  0  0  0  0  0  0  0  0  0  0
  -11.5414  -24.6006  -35.4410 H   0  0  0  0  0  0  0  0  0  0  0  0
  -10.2150  -24.8863  -34.3156 H   0  0  0  0  0  0  0  0  0  0  0  0
  -11.8081  -31.0308  -33.1330 H   0  0  0  0  0  0  0  0  0  0  0  0
  -10.7843  -31.2893  -31.7112 H   0  0  0  0  0  0  0  0  0  0  0  0
   -8.0411  -30.5574  -32.9256 H   0  0  0  0  0  0  0  0  0  0  0  0
  -13.9963  -24.8947  -38.0849 H   0  0  0  0  0  0  0  0  0  0  0  0
  -12.5838  -25.7905  -37.0452 H   0  0  0  0  0  0  0  0  0  0  0  0
  1  2  2  0  0  0  0
  1  3  1  0  0  0  0
  2  4  1  0  0  0  0
  3 12  2  0  0  0  0
  4 13  2  0  0  0  0
  5  7  1  0  0  0  0
  5 15  2  0  0  0  0
  6  8  1  0  0  0  0
  6 14  2  0  0  0  0
  7 16  2  0  0  0  0
  8 17  2  0  0  0  0
  9 11  2  0  0  0  0
  9 16  1  0  0  0  0
 10 14  1  0  0  0  0
 10 18  2  0  0  0  0
 11 15  1  0  0  0  0
 11 21  1  0  0  0  0
 12 13  1  0  0  0  0
 12 23  1  0  0  0  0
 13 24  1  0  0  0  0
 14 25  1  0  0  0  0
 15 26  1  0  0  0  0
 16 28  1  0  0  0  0
 17 18  1  0  0  0  0
 17 29  1  0  0  0  0
 18 30  1  0  0  0  0
 19 22  1  0  0  0  0
 19 23  2  0  0  0  0
 19 24  1  0  0  0  0
 20 25  1  0  0  0  0
 20 26  1  0  0  0  0
 20 27  2  0  0  0  0
 22 28  1  0  0  0  0
  1 31  1  0  0  0  0
  2 32  1  0  0  0  0
  3 33  1  0  0  0  0
  4 34  1  0  0  0  0
  5 35  1  0  0  0  0
  6 36  1  0  0  0  0
  7 37  1  0  0  0  0
  8 38  1  0  0  0  0
  9 39  1  0  0  0  0
 10 40  1  0  0  0  0
 21 41  1  0  0  0  0
 21 42  1  0  0  0  0
 21 43  1  0  0  0  0
 22 44  1  0  0  0  0
 22 45  1  0  0  0  0
 24 46  1  0  0  0  0
 25 47  1  0  0  0  0
 26 48  1  0  0  0  0
M  END
> <Name>
EZ_14

> <SourceTag>
EZ_14

> <Activity_FLAP>
0.7

> <Activity_sEH>
56.9

> <Gold.Version>
5.2

> <Gold.Id.Protein>
6HGV|6HGV_protein|mol2

> <Gold.PLP.Fitness>
78.4964

> <Gold.PLP.PLP>
-76.3680

> <Gold.PLP.part.hbond>
-6.8936

> <Gold.PLP.part.metal>
0.0000

> <Gold.PLP.part.buried>
4.6847

> <Gold.PLP.part.nonpolar>
-73.3866

> <Gold.PLP.part.repulsive>
0.0894

> <Gold.PLP.ligand.clash>
0.3161

> <Gold.PLP.ligand.torsion>
1.0813

> <Gold.PLP.Chemscore.Hbond>
0.9457

> <Gold.PLP.Chemscore.CHOScore>
0.0000

> <Gold.PLP.Chemscore.Metal>
0.0000

> <Gold.Chemscore.Hbonds>
donor molecule, donor type, donor heavy atom, donor atom, acceptor molecule, acceptor atom, score
      L1  H    25    47       P1  1931  0.81
      L1  H    26    48       P1  1931  0.02
      P1  H  1247  3847       L1    27  0.12

> <Gold.PLP.Chemscore.Internal.Correction>
0.3672

> <Gold.Protein.RotatedTorsions>
[ 3525  925  924  922 ] final   30.24 input   59.99 | X-H torsion
[ 3781 1176 1175 1172 ] final  105.01 input   60.00 | X-H torsion
[ 4531 1957 1955 1953 ] final -173.21 input   60.00 | X-H torsion
[ 3847 1247 1246 1244 ] final  -40.40 input   60.00 | X-H torsion
[ 4507 1931 1930 1928 ] final -174.15 input   60.00 | X-H torsion
[ 3677 1070 1069 1066 ] final  128.41 input   60.00 | X-H torsion

> <Gold.Protein.ActiveResidues>
 GLY266  PHE267  PRO268  GLU269  MET310  HIS334  ASP335  TRP336  GLY337  GLY338 
 MET339  LEU340  TRP342  TYR343  LEU358  ASN359  THR360  PRO361  ILE363  ALA365 
 MET369  SER370  PRO371  LEU372  GLU373  SER374  ILE375  LYS376  ALA377  ASN378 
 VAL380  PHE381  ASP382  TYR383  GLN384  PHE387  GLN388  LEU397  SER407  LEU408 
 PHE409  ARG410  LEU417  MET419  LEU428  PHE429  PHE459  TRP465  TYR466  ASN468 
 MET469  GLU470  ASN472  TRP473  ALA476  ASP496  PHE497  VAL498  LEU499  MET503 
 HIS524  TRP525 

> <Gold.Protein.RotatedAtoms>
   -3.2423  -29.6721  -30.7866 H   0  0  0  0  0  0  0  0  0  0  0  0  # atno 3525 bound_to 925 
  -11.4706  -22.2351  -30.6818 H   0  0  0  0  0  0  0  0  0  0  0  0  # atno 3677 bound_to 1070
  -10.0458  -37.2130  -32.3907 H   0  0  0  0  0  0  0  0  0  0  0  0  # atno 3781 bound_to 1176
  -16.0439  -28.1694  -37.1336 H   0  0  0  0  0  0  0  0  0  0  0  0  # atno 3847 bound_to 1247
  -12.9330  -23.8824  -40.2485 H   0  0  0  0  0  0  0  0  0  0  0  0  # atno 4507 bound_to 1931
   -1.4325  -33.6757  -36.9801 H   0  0  0  0  0  0  0  0  0  0  0  0  # atno 4531 bound_to 1957
   -3.4412  -29.7356  -29.1727 LP  0  0  0  0  0  0  0  0  0  0  0  0  # atno 5201 bound_to 925 
   -2.0572  -30.2770  -29.8496 LP  0  0  0  0  0  0  0  0  0  0  0  0  # atno 5202 bound_to 925 
  -10.7248  -37.1105  -33.8660 LP  0  0  0  0  0  0  0  0  0  0  0  0  # atno 5205 bound_to 1176
   -9.3400  -36.3072  -33.5438 LP  0  0  0  0  0  0  0  0  0  0  0  0  # atno 5206 bound_to 1176
   -3.0231  -33.5214  -36.6727 LP  0  0  0  0  0  0  0  0  0  0  0  0  # atno 5213 bound_to 1957
   -2.0860  -32.1931  -36.8279 LP  0  0  0  0  0  0  0  0  0  0  0  0  # atno 5214 bound_to 1957
  -14.9341  -27.2684  -37.9112 LP  0  0  0  0  0  0  0  0  0  0  0  0  # atno 5227 bound_to 1247
  -14.5803  -28.7988  -37.4646 LP  0  0  0  0  0  0  0  0  0  0  0  0  # atno 5228 bound_to 1247
  -12.5918  -24.5843  -38.8206 LP  0  0  0  0  0  0  0  0  0  0  0  0  # atno 5245 bound_to 1931
  -13.6709  -25.2724  -39.8348 LP  0  0  0  0  0  0  0  0  0  0  0  0  # atno 5246 bound_to 1931
  -12.8167  -23.1380  -30.5371 LP  0  0  0  0  0  0  0  0  0  0  0  0  # atno 5265 bound_to 1070
  -11.5702  -23.6658  -31.4506 LP  0  0  0  0  0  0  0  0  0  0  0  0  # atno 5266 bound_to 1070

$$$$
EZ_14|Lisa_paper2_min|sdf|2|dock7
  -GOLD-  10202014253D 1   1.00000     0.00000

 48 51  0  0  0  0  0  0  0  0  1 V2000
  -17.5124  -23.4469  -40.9416 C   0  0  0  0  0  0  0  0  0  0  0  0
  -18.5359  -23.2305  -40.0161 C   0  0  0  0  0  0  0  0  0  0  0  0
  -16.3473  -24.1354  -40.5810 C   0  0  0  0  0  0  0  0  0  0  0  0
  -18.4339  -23.6926  -38.6998 C   0  0  0  0  0  0  0  0  0  0  0  0
  -11.0359  -27.6878  -35.9601 C   0  0  0  0  0  0  0  0  0  0  0  0
   -5.1201  -30.4322  -34.2822 C   0  0  0  0  0  0  0  0  0  0  0  0
  -12.2713  -27.0961  -36.2232 C   0  0  0  0  0  0  0  0  0  0  0  0
   -4.3817  -31.6155  -34.2908 C   0  0  0  0  0  0  0  0  0  0  0  0
  -11.7641  -25.3365  -34.6473 C   0  0  0  0  0  0  0  0  0  0  0  0
   -7.1032  -31.6649  -34.9025 C   0  0  0  0  0  0  0  0  0  0  0  0
  -10.5287  -25.9283  -34.3841 C   0  0  0  0  0  0  0  0  0  0  0  0
  -16.2278  -24.6066  -39.2626 C   0  0  0  0  0  0  0  0  0  0  0  0
  -17.2648  -24.3755  -38.3631 C   0  0  0  0  0  0  0  0  0  0  0  0
   -6.4809  -30.4568  -34.5879 C   0  0  0  0  0  0  0  0  0  0  0  0
  -10.1646  -27.1039  -35.0405 C   0  0  0  0  0  0  0  0  0  0  0  0
  -12.6355  -25.9204  -35.5669 C   0  0  0  0  0  0  0  0  0  0  0  0
   -5.0041  -32.8236  -34.6052 C   0  0  0  0  0  0  0  0  0  0  0  0
   -6.3649  -32.8483  -34.9111 C   0  0  0  0  0  0  0  0  0  0  0  0
  -15.6017  -25.4915  -37.4229 C   0  0  0  0  0  0  0  0  0  0  0  0
   -8.5721  -29.0721  -34.9462 C   0  0  0  0  0  0  0  0  0  0  0  0
   -9.6159  -25.2805  -33.3941 C   0  0  0  0  0  0  0  0  0  0  0  0
  -14.8624  -26.1916  -36.3560 C   0  0  0  0  0  0  0  0  0  0  0  0
  -15.2037  -25.3011  -38.6608 N   0  0  0  0  0  0  0  0  0  0  0  0
  -16.8372  -24.9524  -37.1947 N   0  0  0  0  0  0  0  0  0  0  0  0
   -7.2296  -29.2562  -34.5785 N   0  0  0  0  0  0  0  0  0  0  0  0
   -8.9326  -27.7127  -34.7890 N   0  0  0  0  0  0  0  0  0  0  0  0
   -9.3259  -29.9542  -35.3449 O   0  0  0  0  0  0  0  0  0  0  0  0
  -13.8465  -25.3400  -35.8253 O   0  0  0  0  0  0  0  0  0  0  0  0
   -4.0347  -34.2549  -34.6020 Cl  0  0  0  0  0  0  0  0  0  0  0  0
   -7.1917  -34.3131  -35.3107 Cl  0  0  0  0  0  0  0  0  0  0  0  0
  -17.6211  -23.0759  -41.9577 H   0  0  0  0  0  0  0  0  0  0  0  0
  -19.4287  -22.6914  -40.3236 H   0  0  0  0  0  0  0  0  0  0  0  0
  -15.5584  -24.2991  -41.3081 H   0  0  0  0  0  0  0  0  0  0  0  0
  -19.2276  -23.5264  -37.9806 H   0  0  0  0  0  0  0  0  0  0  0  0
  -10.7634  -28.6047  -36.4771 H   0  0  0  0  0  0  0  0  0  0  0  0
   -4.6257  -29.4964  -34.0342 H   0  0  0  0  0  0  0  0  0  0  0  0
  -12.9455  -27.5556  -36.9409 H   0  0  0  0  0  0  0  0  0  0  0  0
   -3.3226  -31.5777  -34.0484 H   0  0  0  0  0  0  0  0  0  0  0  0
  -12.0511  -24.4203  -34.1369 H   0  0  0  0  0  0  0  0  0  0  0  0
   -8.1648  -31.6776  -35.1414 H   0  0  0  0  0  0  0  0  0  0  0  0
   -9.8102  -25.6697  -32.3882 H   0  0  0  0  0  0  0  0  0  0  0  0
   -8.5646  -25.4666  -33.6446 H   0  0  0  0  0  0  0  0  0  0  0  0
   -9.7540  -24.1925  -33.3815 H   0  0  0  0  0  0  0  0  0  0  0  0
  -15.5204  -26.4950  -35.5221 H   0  0  0  0  0  0  0  0  0  0  0  0
  -14.3771  -27.1127  -36.7253 H   0  0  0  0  0  0  0  0  0  0  0  0
  -17.3475  -24.9742  -36.3217 H   0  0  0  0  0  0  0  0  0  0  0  0
   -6.7344  -28.4245  -34.2672 H   0  0  0  0  0  0  0  0  0  0  0  0
   -8.1839  -27.1031  -34.4457 H   0  0  0  0  0  0  0  0  0  0  0  0
  1  2  2  0  0  0  0
  1  3  1  0  0  0  0
  2  4  1  0  0  0  0
  3 12  2  0  0  0  0
  4 13  2  0  0  0  0
  5  7  1  0  0  0  0
  5 15  2  0  0  0  0
  6  8  1  0  0  0  0
  6 14  2  0  0  0  0
  7 16  2  0  0  0  0
  8 17  2  0  0  0  0
  9 11  2  0  0  0  0
  9 16  1  0  0  0  0
 10 14  1  0  0  0  0
 10 18  2  0  0  0  0
 11 15  1  0  0  0  0
 11 21  1  0  0  0  0
 12 13  1  0  0  0  0
 12 23  1  0  0  0  0
 13 24  1  0  0  0  0
 14 25  1  0  0  0  0
 15 26  1  0  0  0  0
 16 28  1  0  0  0  0
 17 18  1  0  0  0  0
 17 29  1  0  0  0  0
 18 30  1  0  0  0  0
 19 22  1  0  0  0  0
 19 23  2  0  0  0  0
 19 24  1  0  0  0  0
 20 25  1  0  0  0  0
 20 26  1  0  0  0  0
 20 27  2  0  0  0  0
 22 28  1  0  0  0  0
  1 31  1  0  0  0  0
  2 32  1  0  0  0  0
  3 33  1  0  0  0  0
  4 34  1  0  0  0  0
  5 35  1  0  0  0  0
  6 36  1  0  0  0  0
  7 37  1  0  0  0  0
  8 38  1  0  0  0  0
  9 39  1  0  0  0  0
 10 40  1  0  0  0  0
 21 41  1  0  0  0  0
 21 42  1  0  0  0  0
 21 43  1  0  0  0  0
 22 44  1  0  0  0  0
 22 45  1  0  0  0  0
 24 46  1  0  0  0  0
 25 47  1  0  0  0  0
 26 48  1  0  0  0  0
M  END
> <Name>
EZ_14

> <SourceTag>
EZ_14

> <Activity_FLAP>
0.7

> <Activity_sEH>
56.9

> <Gold.Version>
5.2

> <Gold.Id.Protein>
6HGV|6HGV_protein|mol2

> <Gold.PLP.Fitness>
77.1060

> <Gold.PLP.PLP>
-74.7646

> <Gold.PLP.part.hbond>
-4.0000

> <Gold.PLP.part.metal>
0.0000

> <Gold.PLP.part.buried>
11.4790

> <Gold.PLP.part.nonpolar>
-84.7819

> <Gold.PLP.part.repulsive>
2.6797

> <Gold.PLP.ligand.clash>
0.0835

> <Gold.PLP.ligand.torsion>
0.9973

> <Gold.PLP.Chemscore.Hbond>
0.9147

> <Gold.PLP.Chemscore.CHOScore>
0.0000

> <Gold.PLP.Chemscore.Metal>
0.0000

> <Gold.Chemscore.Hbonds>
donor molecule, donor type, donor heavy atom, donor atom, acceptor molecule, acceptor atom, score
      P1  H  1256  3854       L1    27  0.08
      P1  H  1931  4507       L1    23  0.83

> <Gold.PLP.Chemscore.Internal.Correction>
0.3672

> <Gold.Protein.RotatedTorsions>
[ 3525  925  924  922 ] final -137.90 input   59.99 | X-H torsion
[ 3781 1176 1175 1172 ] final  150.93 input   60.00 | X-H torsion
[ 4531 1957 1955 1953 ] final  174.41 input   60.00 | X-H torsion
[ 3847 1247 1246 1244 ] final  -21.85 input   60.00 | X-H torsion
[ 4507 1931 1930 1928 ] final  -29.18 input   60.00 | X-H torsion
[ 3677 1070 1069 1066 ] final -133.24 input   60.00 | X-H torsion

> <Gold.Protein.ActiveResidues>
 GLY266  PHE267  PRO268  GLU269  MET310  HIS334  ASP335  TRP336  GLY337  GLY338 
 MET339  LEU340  TRP342  TYR343  LEU358  ASN359  THR360  PRO361  ILE363  ALA365 
 MET369  SER370  PRO371  LEU372  GLU373  SER374  ILE375  LYS376  ALA377  ASN378 
 VAL380  PHE381  ASP382  TYR383  GLN384  PHE387  GLN388  LEU397  SER407  LEU408 
 PHE409  ARG410  LEU417  MET419  LEU428  PHE429  PHE459  TRP465  TYR466  ASN468 
 MET469  GLU470  ASN472  TRP473  ALA476  ASP496  PHE497  VAL498  LEU499  MET503 
 HIS524  TRP525 

> <Gold.Protein.RotatedAtoms>
   -2.7553  -30.0453  -29.0281 H   0  0  0  0  0  0  0  0  0  0  0  0  # atno 3525 bound_to 925 
  -11.3134  -23.4241  -31.4362 H   0  0  0  0  0  0  0  0  0  0  0  0  # atno 3677 bound_to 1070
   -9.4725  -36.7805  -32.5242 H   0  0  0  0  0  0  0  0  0  0  0  0  # atno 3781 bound_to 1176
  -15.9350  -28.4438  -37.0714 H   0  0  0  0  0  0  0  0  0  0  0  0  # atno 3847 bound_to 1247
  -13.5260  -25.3756  -39.4695 H   0  0  0  0  0  0  0  0  0  0  0  0  # atno 4507 bound_to 1931
   -1.5651  -33.8263  -36.9575 H   0  0  0  0  0  0  0  0  0  0  0  0  # atno 4531 bound_to 1957
   -2.2584  -30.1229  -30.5758 LP  0  0  0  0  0  0  0  0  0  0  0  0  # atno 5201 bound_to 925 
   -3.7305  -29.5139  -30.2174 LP  0  0  0  0  0  0  0  0  0  0  0  0  # atno 5202 bound_to 925 
  -10.8089  -37.4153  -33.2018 LP  0  0  0  0  0  0  0  0  0  0  0  0  # atno 5205 bound_to 1176
   -9.8334  -36.4380  -34.0735 LP  0  0  0  0  0  0  0  0  0  0  0  0  # atno 5206 bound_to 1176
   -3.0850  -33.3284  -36.6576 LP  0  0  0  0  0  0  0  0  0  0  0  0  # atno 5213 bound_to 1957
   -1.8906  -32.2345  -36.8657 LP  0  0  0  0  0  0  0  0  0  0  0  0  # atno 5214 bound_to 1957
  -15.2171  -27.1949  -37.8282 LP  0  0  0  0  0  0  0  0  0  0  0  0  # atno 5227 bound_to 1247
  -14.4070  -28.5959  -37.6102 LP  0  0  0  0  0  0  0  0  0  0  0  0  # atno 5228 bound_to 1247
  -13.2092  -24.1095  -40.4414 LP  0  0  0  0  0  0  0  0  0  0  0  0  # atno 5245 bound_to 1931
  -12.4564  -24.2433  -38.9985 LP  0  0  0  0  0  0  0  0  0  0  0  0  # atno 5246 bound_to 1931
  -11.7678  -22.1713  -30.5023 LP  0  0  0  0  0  0  0  0  0  0  0  0  # atno 5265 bound_to 1070
  -12.7774  -23.4352  -30.7257 LP  0  0  0  0  0  0  0  0  0  0  0  0  # atno 5266 bound_to 1070

$$$$
EZ_14|Lisa_paper2_min|sdf|2|dock8
  -GOLD-  10202014253D 1   1.00000     0.00000

 48 51  0  0  0  0  0  0  0  0  1 V2000
  -19.9692  -24.8606  -38.8063 C   0  0  0  0  0  0  0  0  0  0  0  0
  -19.4797  -23.6309  -39.2525 C   0  0  0  0  0  0  0  0  0  0  0  0
  -19.1819  -25.7061  -38.0144 C   0  0  0  0  0  0  0  0  0  0  0  0
  -18.1895  -23.2011  -38.9249 C   0  0  0  0  0  0  0  0  0  0  0  0
  -10.6695  -27.9457  -36.6906 C   0  0  0  0  0  0  0  0  0  0  0  0
   -5.0293  -30.2760  -34.0302 C   0  0  0  0  0  0  0  0  0  0  0  0
  -11.8448  -27.4368  -37.2430 C   0  0  0  0  0  0  0  0  0  0  0  0
   -4.1861  -31.3825  -33.9286 C   0  0  0  0  0  0  0  0  0  0  0  0
  -12.0027  -25.8407  -35.4362 C   0  0  0  0  0  0  0  0  0  0  0  0
   -6.8934  -31.7394  -34.4994 C   0  0  0  0  0  0  0  0  0  0  0  0
  -10.8274  -26.3497  -34.8838 C   0  0  0  0  0  0  0  0  0  0  0  0
  -17.8832  -25.2903  -37.6758 C   0  0  0  0  0  0  0  0  0  0  0  0
  -17.4235  -24.0593  -38.1353 C   0  0  0  0  0  0  0  0  0  0  0  0
   -6.3830  -30.4545  -34.3154 C   0  0  0  0  0  0  0  0  0  0  0  0
  -10.1608  -27.4022  -35.5111 C   0  0  0  0  0  0  0  0  0  0  0  0
  -12.5114  -26.3842  -36.6158 C   0  0  0  0  0  0  0  0  0  0  0  0
   -4.6966  -32.6676  -34.1125 C   0  0  0  0  0  0  0  0  0  0  0  0
   -6.0503  -32.8460  -34.3980 C   0  0  0  0  0  0  0  0  0  0  0  0
  -15.8955  -25.0991  -36.9192 C   0  0  0  0  0  0  0  0  0  0  0  0
   -8.4405  -29.2237  -35.1347 C   0  0  0  0  0  0  0  0  0  0  0  0
  -10.3060  -25.7479  -33.6193 C   0  0  0  0  0  0  0  0  0  0  0  0
  -14.5993  -25.3068  -36.2472 C   0  0  0  0  0  0  0  0  0  0  0  0
  -16.9205  -25.9216  -36.9222 N   0  0  0  0  0  0  0  0  0  0  0  0
  -16.1498  -23.9632  -37.6363 N   0  0  0  0  0  0  0  0  0  0  0  0
   -7.2381  -29.3318  -34.4177 N   0  0  0  0  0  0  0  0  0  0  0  0
   -8.9834  -27.9270  -34.9723 N   0  0  0  0  0  0  0  0  0  0  0  0
   -8.9500  -30.1167  -35.8041 O   0  0  0  0  0  0  0  0  0  0  0  0
  -13.6635  -25.8848  -37.1578 O   0  0  0  0  0  0  0  0  0  0  0  0
   -3.6007  -33.9976  -33.9770 Cl  0  0  0  0  0  0  0  0  0  0  0  0
   -6.7413  -34.4125  -34.6382 Cl  0  0  0  0  0  0  0  0  0  0  0  0
  -20.9765  -25.1668  -39.0772 H   0  0  0  0  0  0  0  0  0  0  0  0
  -20.1126  -22.9956  -39.8673 H   0  0  0  0  0  0  0  0  0  0  0  0
  -19.5723  -26.6591  -37.6721 H   0  0  0  0  0  0  0  0  0  0  0  0
  -17.8084  -22.2466  -39.2694 H   0  0  0  0  0  0  0  0  0  0  0  0
  -10.1591  -28.7670  -37.1880 H   0  0  0  0  0  0  0  0  0  0  0  0
   -4.6216  -29.2791  -33.8835 H   0  0  0  0  0  0  0  0  0  0  0  0
  -12.2358  -27.8641  -38.1624 H   0  0  0  0  0  0  0  0  0  0  0  0
   -3.1341  -31.2248  -33.7040 H   0  0  0  0  0  0  0  0  0  0  0  0
  -12.5250  -25.0205  -34.9494 H   0  0  0  0  0  0  0  0  0  0  0  0
   -7.9501  -31.8722  -34.7231 H   0  0  0  0  0  0  0  0  0  0  0  0
  -10.7233  -26.2699  -32.7508 H   0  0  0  0  0  0  0  0  0  0  0  0
   -9.2120  -25.8103  -33.5732 H   0  0  0  0  0  0  0  0  0  0  0  0
  -10.5690  -24.6854  -33.5491 H   0  0  0  0  0  0  0  0  0  0  0  0
  -14.1676  -24.3617  -35.8716 H   0  0  0  0  0  0  0  0  0  0  0  0
  -14.6884  -25.9803  -35.3762 H   0  0  0  0  0  0  0  0  0  0  0  0
  -15.5144  -23.1885  -37.7750 H   0  0  0  0  0  0  0  0  0  0  0  0
   -6.9457  -28.5010  -33.9096 H   0  0  0  0  0  0  0  0  0  0  0  0
   -8.4323  -27.2979  -34.3802 H   0  0  0  0  0  0  0  0  0  0  0  0
  1  2  2  0  0  0  0
  1  3  1  0  0  0  0
  2  4  1  0  0  0  0
  3 12  2  0  0  0  0
  4 13  2  0  0  0  0
  5  7  1  0  0  0  0
  5 15  2  0  0  0  0
  6  8  1  0  0  0  0
  6 14  2  0  0  0  0
  7 16  2  0  0  0  0
  8 17  2  0  0  0  0
  9 11  2  0  0  0  0
  9 16  1  0  0  0  0
 10 14  1  0  0  0  0
 10 18  2  0  0  0  0
 11 15  1  0  0  0  0
 11 21  1  0  0  0  0
 12 13  1  0  0  0  0
 12 23  1  0  0  0  0
 13 24  1  0  0  0  0
 14 25  1  0  0  0  0
 15 26  1  0  0  0  0
 16 28  1  0  0  0  0
 17 18  1  0  0  0  0
 17 29  1  0  0  0  0
 18 30  1  0  0  0  0
 19 22  1  0  0  0  0
 19 23  2  0  0  0  0
 19 24  1  0  0  0  0
 20 25  1  0  0  0  0
 20 26  1  0  0  0  0
 20 27  2  0  0  0  0
 22 28  1  0  0  0  0
  1 31  1  0  0  0  0
  2 32  1  0  0  0  0
  3 33  1  0  0  0  0
  4 34  1  0  0  0  0
  5 35  1  0  0  0  0
  6 36  1  0  0  0  0
  7 37  1  0  0  0  0
  8 38  1  0  0  0  0
  9 39  1  0  0  0  0
 10 40  1  0  0  0  0
 21 41  1  0  0  0  0
 21 42  1  0  0  0  0
 21 43  1  0  0  0  0
 22 44  1  0  0  0  0
 22 45  1  0  0  0  0
 24 46  1  0  0  0  0
 25 47  1  0  0  0  0
 26 48  1  0  0  0  0
M  END
> <Name>
EZ_14

> <SourceTag>
EZ_14

> <Activity_FLAP>
0.7

> <Activity_sEH>
56.9

> <Gold.Version>
5.2

> <Gold.Id.Protein>
6HGV|6HGV_protein|mol2

> <Gold.PLP.Fitness>
76.4582

> <Gold.PLP.PLP>
-73.7318

> <Gold.PLP.part.hbond>
-7.7749

> <Gold.PLP.part.metal>
0.0000

> <Gold.PLP.part.buried>
9.5182

> <Gold.PLP.part.nonpolar>
-75.2646

> <Gold.PLP.part.repulsive>
0.1680

> <Gold.PLP.ligand.clash>
0.0000

> <Gold.PLP.ligand.torsion>
1.0448

> <Gold.PLP.Chemscore.Hbond>
1.0191

> <Gold.PLP.Chemscore.CHOScore>
0.0000

> <Gold.PLP.Chemscore.Metal>
0.0000

> <Gold.Chemscore.Hbonds>
donor molecule, donor type, donor heavy atom, donor atom, acceptor molecule, acceptor atom, score
      L1  H    24    46       P1   853  0.02
      P1  H  1247  3847       L1    23  0.33
      P1  H  1931  4507       L1    28  0.67

> <Gold.PLP.Chemscore.Internal.Correction>
0.3672

> <Gold.Protein.RotatedTorsions>
[ 3525  925  924  922 ] final -119.63 input   59.99 | X-H torsion
[ 3781 1176 1175 1172 ] final   98.25 input   60.00 | X-H torsion
[ 4531 1957 1955 1953 ] final -172.58 input   60.00 | X-H torsion
[ 3847 1247 1246 1244 ] final  -72.66 input   60.00 | X-H torsion
[ 4507 1931 1930 1928 ] final   -6.65 input   60.00 | X-H torsion
[ 3677 1070 1069 1066 ] final  -49.29 input   60.00 | X-H torsion

> <Gold.Protein.ActiveResidues>
 GLY266  PHE267  PRO268  GLU269  MET310  HIS334  ASP335  TRP336  GLY337  GLY338 
 MET339  LEU340  TRP342  TYR343  LEU358  ASN359  THR360  PRO361  ILE363  ALA365 
 MET369  SER370  PRO371  LEU372  GLU373  SER374  ILE375  LYS376  ALA377  ASN378 
 VAL380  PHE381  ASP382  TYR383  GLN384  PHE387  GLN388  LEU397  SER407  LEU408 
 PHE409  ARG410  LEU417  MET419  LEU428  PHE429  PHE459  TRP465  TYR466  ASN468 
 MET469  GLU470  ASN472  TRP473  ALA476  ASP496  PHE497  VAL498  LEU499  MET503 
 HIS524  TRP525 

> <Gold.Protein.RotatedAtoms>
   -3.0279  -29.9282  -29.0096 H   0  0  0  0  0  0  0  0  0  0  0  0  # atno 3525 bound_to 925 
  -12.4592  -23.7759  -31.0732 H   0  0  0  0  0  0  0  0  0  0  0  0  # atno 3677 bound_to 1070
  -10.1392  -37.2649  -32.4186 H   0  0  0  0  0  0  0  0  0  0  0  0  # atno 3781 bound_to 1176
  -16.0202  -27.6873  -37.3274 H   0  0  0  0  0  0  0  0  0  0  0  0  # atno 3847 bound_to 1247
  -13.3253  -25.3442  -39.1652 H   0  0  0  0  0  0  0  0  0  0  0  0  # atno 4507 bound_to 1931
   -1.4266  -33.6673  -36.9811 H   0  0  0  0  0  0  0  0  0  0  0  0  # atno 4531 bound_to 1957
   -2.1149  -30.2082  -30.3272 LP  0  0  0  0  0  0  0  0  0  0  0  0  # atno 5201 bound_to 925 
   -3.5995  -29.5465  -30.4846 LP  0  0  0  0  0  0  0  0  0  0  0  0  # atno 5202 bound_to 925 
  -10.6720  -37.0472  -33.9406 LP  0  0  0  0  0  0  0  0  0  0  0  0  # atno 5205 bound_to 1176
   -9.2988  -36.3182  -33.4411 LP  0  0  0  0  0  0  0  0  0  0  0  0  # atno 5206 bound_to 1176
   -3.0188  -33.5309  -36.6736 LP  0  0  0  0  0  0  0  0  0  0  0  0  # atno 5213 bound_to 1957
   -2.0962  -32.1922  -36.8259 LP  0  0  0  0  0  0  0  0  0  0  0  0  # atno 5214 bound_to 1957
  -14.5207  -27.5874  -37.9514 LP  0  0  0  0  0  0  0  0  0  0  0  0  # atno 5227 bound_to 1247
  -15.0176  -28.9652  -37.2293 LP  0  0  0  0  0  0  0  0  0  0  0  0  # atno 5228 bound_to 1247
  -13.4360  -24.3968  -40.4836 LP  0  0  0  0  0  0  0  0  0  0  0  0  # atno 5245 bound_to 1931
  -12.4317  -23.9877  -39.2627 LP  0  0  0  0  0  0  0  0  0  0  0  0  # atno 5246 bound_to 1931
  -11.0897  -22.9170  -31.2603 LP  0  0  0  0  0  0  0  0  0  0  0  0  # atno 5265 bound_to 1070
  -12.3016  -22.3352  -30.3332 LP  0  0  0  0  0  0  0  0  0  0  0  0  # atno 5266 bound_to 1070

$$$$
EZ_14|Lisa_paper2_min|sdf|2|dock3
  -GOLD-  10202014243D 1   1.00000     0.00000

 48 51  0  0  0  0  0  0  0  0  1 V2000
   -6.9027  -33.9574  -36.2854 C   0  0  0  0  0  0  0  0  0  0  0  0
   -6.0376  -33.1250  -35.5715 C   0  0  0  0  0  0  0  0  0  0  0  0
   -8.2920  -33.8222  -36.1709 C   0  0  0  0  0  0  0  0  0  0  0  0
   -6.5268  -32.1295  -34.7192 C   0  0  0  0  0  0  0  0  0  0  0  0
  -13.5709  -27.8771  -35.2438 C   0  0  0  0  0  0  0  0  0  0  0  0
  -16.9005  -23.5201  -39.0345 C   0  0  0  0  0  0  0  0  0  0  0  0
  -12.8247  -28.8009  -34.5122 C   0  0  0  0  0  0  0  0  0  0  0  0
  -18.1562  -23.2018  -39.5517 C   0  0  0  0  0  0  0  0  0  0  0  0
  -10.9778  -27.2453  -34.4319 C   0  0  0  0  0  0  0  0  0  0  0  0
  -17.9480  -24.8393  -37.3027 C   0  0  0  0  0  0  0  0  0  0  0  0
  -11.7241  -26.3215  -35.1636 C   0  0  0  0  0  0  0  0  0  0  0  0
   -8.8010  -32.8273  -35.3191 C   0  0  0  0  0  0  0  0  0  0  0  0
   -7.9136  -32.0132  -34.6208 C   0  0  0  0  0  0  0  0  0  0  0  0
  -16.7964  -24.3389  -37.9100 C   0  0  0  0  0  0  0  0  0  0  0  0
  -13.0207  -26.6374  -35.5695 C   0  0  0  0  0  0  0  0  0  0  0  0
  -11.5281  -28.4850  -34.1062 C   0  0  0  0  0  0  0  0  0  0  0  0
  -19.3079  -23.7023  -38.9444 C   0  0  0  0  0  0  0  0  0  0  0  0
  -19.2038  -24.5210  -37.8198 C   0  0  0  0  0  0  0  0  0  0  0  0
  -10.0185  -31.4944  -34.1786 C   0  0  0  0  0  0  0  0  0  0  0  0
  -15.1592  -25.7878  -36.6296 C   0  0  0  0  0  0  0  0  0  0  0  0
  -11.1088  -25.0015  -35.4982 C   0  0  0  0  0  0  0  0  0  0  0  0
  -11.1403  -30.7662  -33.5572 C   0  0  0  0  0  0  0  0  0  0  0  0
  -10.1038  -32.4903  -35.0319 N   0  0  0  0  0  0  0  0  0  0  0  0
   -8.7199  -31.1702  -33.8997 N   0  0  0  0  0  0  0  0  0  0  0  0
  -15.5223  -24.6620  -37.3861 N   0  0  0  0  0  0  0  0  0  0  0  0
  -13.7832  -25.7263  -36.3046 N   0  0  0  0  0  0  0  0  0  0  0  0
  -15.9169  -26.6934  -36.2967 O   0  0  0  0  0  0  0  0  0  0  0  0
  -10.7966  -29.3906  -33.3884 O   0  0  0  0  0  0  0  0  0  0  0  0
  -20.8343  -23.2694  -39.6305 Cl  0  0  0  0  0  0  0  0  0  0  0  0
  -20.5937  -25.1697  -37.0222 Cl  0  0  0  0  0  0  0  0  0  0  0  0
   -6.4922  -34.7218  -36.9404 H   0  0  0  0  0  0  0  0  0  0  0  0
   -4.9633  -33.2537  -35.6787 H   0  0  0  0  0  0  0  0  0  0  0  0
   -8.9555  -34.4734  -36.7309 H   0  0  0  0  0  0  0  0  0  0  0  0
   -5.8568  -31.4821  -34.1652 H   0  0  0  0  0  0  0  0  0  0  0  0
  -14.5802  -28.1349  -35.5556 H   0  0  0  0  0  0  0  0  0  0  0  0
  -16.0093  -23.1261  -39.5163 H   0  0  0  0  0  0  0  0  0  0  0  0
  -13.2590  -29.7647  -34.2612 H   0  0  0  0  0  0  0  0  0  0  0  0
  -18.2183  -22.5636  -40.4297 H   0  0  0  0  0  0  0  0  0  0  0  0
   -9.9666  -27.0022  -34.1144 H   0  0  0  0  0  0  0  0  0  0  0  0
  -17.8605  -25.4765  -36.4249 H   0  0  0  0  0  0  0  0  0  0  0  0
  -10.5829  -25.0608  -36.4579 H   0  0  0  0  0  0  0  0  0  0  0  0
  -11.8705  -24.2153  -35.5641 H   0  0  0  0  0  0  0  0  0  0  0  0
  -10.3945  -24.6909  -34.7259 H   0  0  0  0  0  0  0  0  0  0  0  0
  -12.0589  -30.8137  -34.1690 H   0  0  0  0  0  0  0  0  0  0  0  0
  -11.4009  -31.1770  -32.5654 H   0  0  0  0  0  0  0  0  0  0  0  0
   -8.4068  -30.4394  -33.2744 H   0  0  0  0  0  0  0  0  0  0  0  0
  -14.7783  -23.9970  -37.5813 H   0  0  0  0  0  0  0  0  0  0  0  0
  -13.2909  -24.9007  -36.6594 H   0  0  0  0  0  0  0  0  0  0  0  0
  1  2  2  0  0  0  0
  1  3  1  0  0  0  0
  2  4  1  0  0  0  0
  3 12  2  0  0  0  0
  4 13  2  0  0  0  0
  5  7  1  0  0  0  0
  5 15  2  0  0  0  0
  6  8  1  0  0  0  0
  6 14  2  0  0  0  0
  7 16  2  0  0  0  0
  8 17  2  0  0  0  0
  9 11  2  0  0  0  0
  9 16  1  0  0  0  0
 10 14  1  0  0  0  0
 10 18  2  0  0  0  0
 11 15  1  0  0  0  0
 11 21  1  0  0  0  0
 12 13  1  0  0  0  0
 12 23  1  0  0  0  0
 13 24  1  0  0  0  0
 14 25  1  0  0  0  0
 15 26  1  0  0  0  0
 16 28  1  0  0  0  0
 17 18  1  0  0  0  0
 17 29  1  0  0  0  0
 18 30  1  0  0  0  0
 19 22  1  0  0  0  0
 19 23  2  0  0  0  0
 19 24  1  0  0  0  0
 20 25  1  0  0  0  0
 20 26  1  0  0  0  0
 20 27  2  0  0  0  0
 22 28  1  0  0  0  0
  1 31  1  0  0  0  0
  2 32  1  0  0  0  0
  3 33  1  0  0  0  0
  4 34  1  0  0  0  0
  5 35  1  0  0  0  0
  6 36  1  0  0  0  0
  7 37  1  0  0  0  0
  8 38  1  0  0  0  0
  9 39  1  0  0  0  0
 10 40  1  0  0  0  0
 21 41  1  0  0  0  0
 21 42  1  0  0  0  0
 21 43  1  0  0  0  0
 22 44  1  0  0  0  0
 22 45  1  0  0  0  0
 24 46  1  0  0  0  0
 25 47  1  0  0  0  0
 26 48  1  0  0  0  0
M  END
> <Name>
EZ_14

> <SourceTag>
EZ_14

> <Activity_FLAP>
0.7

> <Activity_sEH>
56.9

> <Gold.Version>
5.2

> <Gold.Id.Protein>
6HGV|6HGV_protein|mol2

> <Gold.PLP.Fitness>
73.3181

> <Gold.PLP.PLP>
-70.9575

> <Gold.PLP.part.hbond>
-4.1336

> <Gold.PLP.part.metal>
0.0000

> <Gold.PLP.part.buried>
5.3540

> <Gold.PLP.part.nonpolar>
-72.9908

> <Gold.PLP.part.repulsive>
0.0763

> <Gold.PLP.ligand.clash>
0.0000

> <Gold.PLP.ligand.torsion>
1.2358

> <Gold.PLP.Chemscore.Hbond>
0.9636

> <Gold.PLP.Chemscore.CHOScore>
0.0000

> <Gold.PLP.Chemscore.Metal>
0.0000

> <Gold.Chemscore.Hbonds>
donor molecule, donor type, donor heavy atom, donor atom, acceptor molecule, acceptor atom, score
      L1  H    25    47       P1   853  0.16
      L1  H    26    48       P1   853  0.24
      P1  H  1247  3847       L1    27  0.56

> <Gold.PLP.Chemscore.Internal.Correction>
0.3779

> <Gold.Protein.RotatedTorsions>
[ 3525  925  924  922 ] final -128.22 input   59.99 | X-H torsion
[ 3781 1176 1175 1172 ] final   79.29 input   60.00 | X-H torsion
[ 4531 1957 1955 1953 ] final  -65.80 input   60.00 | X-H torsion
[ 3847 1247 1246 1244 ] final  -59.41 input   60.00 | X-H torsion
[ 4507 1931 1930 1928 ] final    8.41 input   60.00 | X-H torsion
[ 3677 1070 1069 1066 ] final -177.83 input   60.00 | X-H torsion

> <Gold.Protein.ActiveResidues>
 GLY266  PHE267  PRO268  GLU269  MET310  HIS334  ASP335  TRP336  GLY337  GLY338 
 MET339  LEU340  TRP342  TYR343  LEU358  ASN359  THR360  PRO361  ILE363  ALA365 
 MET369  SER370  PRO371  LEU372  GLU373  SER374  ILE375  LYS376  ALA377  ASN378 
 VAL380  PHE381  ASP382  TYR383  GLN384  PHE387  GLN388  LEU397  SER407  LEU408 
 PHE409  ARG410  LEU417  MET419  LEU428  PHE429  PHE459  TRP465  TYR466  ASN468 
 MET469  GLU470  ASN472  TRP473  ALA476  ASP496  PHE497  VAL498  LEU499  MET503 
 HIS524  TRP525 

> <Gold.Protein.RotatedAtoms>
   -2.8994  -29.9845  -29.0065 H   0  0  0  0  0  0  0  0  0  0  0  0  # atno 3525 bound_to 925 
  -11.0905  -22.7968  -31.1885 H   0  0  0  0  0  0  0  0  0  0  0  0  # atno 3677 bound_to 1070
  -10.3893  -37.3797  -32.5575 H   0  0  0  0  0  0  0  0  0  0  0  0  # atno 3781 bound_to 1176
  -16.0634  -27.8788  -37.2372 H   0  0  0  0  0  0  0  0  0  0  0  0  # atno 3847 bound_to 1247
  -13.1668  -25.2570  -38.9996 H   0  0  0  0  0  0  0  0  0  0  0  0  # atno 4507 bound_to 1931
   -1.8898  -32.2417  -36.8684 H   0  0  0  0  0  0  0  0  0  0  0  0  # atno 4531 bound_to 1957
   -2.1730  -30.1716  -30.4506 LP  0  0  0  0  0  0  0  0  0  0  0  0  # atno 5201 bound_to 925 
   -3.6707  -29.5265  -30.3643 LP  0  0  0  0  0  0  0  0  0  0  0  0  # atno 5202 bound_to 925 
  -10.4796  -36.8603  -34.0970 LP  0  0  0  0  0  0  0  0  0  0  0  0  # atno 5205 bound_to 1176
   -9.2393  -36.3895  -33.1448 LP  0  0  0  0  0  0  0  0  0  0  0  0  # atno 5206 bound_to 1176
   -1.5629  -33.8335  -36.9557 LP  0  0  0  0  0  0  0  0  0  0  0  0  # atno 5213 bound_to 1957
   -3.0857  -33.3250  -36.6574 LP  0  0  0  0  0  0  0  0  0  0  0  0  # atno 5214 bound_to 1957
  -14.6718  -27.4309  -37.9520 LP  0  0  0  0  0  0  0  0  0  0  0  0  # atno 5227 bound_to 1247
  -14.8230  -28.9289  -37.3196 LP  0  0  0  0  0  0  0  0  0  0  0  0  # atno 5228 bound_to 1247
  -13.5578  -24.6070  -40.4393 LP  0  0  0  0  0  0  0  0  0  0  0  0  # atno 5245 bound_to 1931
  -12.4695  -23.8653  -39.4738 LP  0  0  0  0  0  0  0  0  0  0  0  0  # atno 5246 bound_to 1931
  -12.4155  -22.4167  -30.3236 LP  0  0  0  0  0  0  0  0  0  0  0  0  # atno 5265 bound_to 1070
  -12.3541  -23.8215  -31.1538 LP  0  0  0  0  0  0  0  0  0  0  0  0  # atno 5266 bound_to 1070

$$$$
EZ_15|Lisa_paper2_min|sdf|3|dock10
  -GOLD-  10202014253D 1   1.00000     0.00000

 63 66  0  0  0  0  0  0  0  0  1 V2000
   -4.3500  -34.2980  -34.0210 C   0  0  0  0  0  0  0  0  0  0  0  0
   -5.5978  -34.8847  -33.8202 C   0  0  0  0  0  0  0  0  0  0  0  0
   -4.2455  -32.9763  -34.4639 C   0  0  0  0  0  0  0  0  0  0  0  0
   -6.7795  -34.1727  -34.0541 C   0  0  0  0  0  0  0  0  0  0  0  0
  -10.9670  -27.5070  -36.6056 C   0  0  0  0  0  0  0  0  0  0  0  0
  -16.9788  -25.6170  -36.4369 C   0  0  0  0  0  0  0  0  0  0  0  0
   -9.8996  -28.3169  -36.2178 C   0  0  0  0  0  0  0  0  0  0  0  0
  -18.3246  -25.5827  -36.8018 C   0  0  0  0  0  0  0  0  0  0  0  0
   -9.7965  -27.1650  -34.0965 C   0  0  0  0  0  0  0  0  0  0  0  0
  -16.4277  -24.2332  -38.3391 C   0  0  0  0  0  0  0  0  0  0  0  0
  -10.8638  -26.3550  -34.4845 C   0  0  0  0  0  0  0  0  0  0  0  0
   -5.4232  -32.2463  -34.7041 C   0  0  0  0  0  0  0  0  0  0  0  0
   -6.6656  -32.8473  -34.4983 C   0  0  0  0  0  0  0  0  0  0  0  0
  -16.0302  -24.9424  -37.2056 C   0  0  0  0  0  0  0  0  0  0  0  0
  -11.4490  -26.5260  -35.7390 C   0  0  0  0  0  0  0  0  0  0  0  0
   -9.3143  -28.1459  -34.9632 C   0  0  0  0  0  0  0  0  0  0  0  0
  -18.7220  -24.8735  -37.9354 C   0  0  0  0  0  0  0  0  0  0  0  0
  -17.7735  -24.1988  -38.7040 C   0  0  0  0  0  0  0  0  0  0  0  0
   -6.8625  -30.7587  -35.1972 C   0  0  0  0  0  0  0  0  0  0  0  0
   -8.9902  -31.9764  -34.7810 C   0  0  0  0  0  0  0  0  0  0  0  0
  -13.8445  -26.0304  -36.4556 C   0  0  0  0  0  0  0  0  0  0  0  0
  -11.3591  -25.3124  -33.5355 C   0  0  0  0  0  0  0  0  0  0  0  0
  -10.9810  -34.9092  -33.8778 C   0  0  0  0  0  0  0  0  0  0  0  0
  -11.3489  -32.4955  -33.2877 C   0  0  0  0  0  0  0  0  0  0  0  0
  -11.3446  -33.2075  -35.6963 C   0  0  0  0  0  0  0  0  0  0  0  0
   -7.4540  -29.4705  -35.6267 C   0  0  0  0  0  0  0  0  0  0  0  0
  -10.7538  -33.4614  -34.3101 C   0  0  0  0  0  0  0  0  0  0  0  0
   -5.5668  -30.9555  -35.1363 N   0  0  0  0  0  0  0  0  0  0  0  0
   -7.5957  -31.8669  -34.8229 N   0  0  0  0  0  0  0  0  0  0  0  0
  -14.6629  -24.9770  -36.8341 N   0  0  0  0  0  0  0  0  0  0  0  0
  -12.5175  -25.7235  -36.1466 N   0  0  0  0  0  0  0  0  0  0  0  0
   -9.7108  -31.0421  -35.0910 O   0  0  0  0  0  0  0  0  0  0  0  0
   -8.2675  -28.9409  -34.5825 O   0  0  0  0  0  0  0  0  0  0  0  0
   -9.3451  -33.2180  -34.3637 O   0  0  0  0  0  0  0  0  0  0  0  0
  -14.5096  -27.5761  -36.5489 S   0  0  0  0  0  0  0  0  0  0  0  0
  -20.4034  -24.8715  -38.3367 Cl  0  0  0  0  0  0  0  0  0  0  0  0
  -18.2037  -23.3050  -40.1201 Cl  0  0  0  0  0  0  0  0  0  0  0  0
   -3.4476  -34.8730  -33.8320 H   0  0  0  0  0  0  0  0  0  0  0  0
   -5.6557  -35.9143  -33.4759 H   0  0  0  0  0  0  0  0  0  0  0  0
   -3.2699  -32.5259  -34.6186 H   0  0  0  0  0  0  0  0  0  0  0  0
   -7.7375  -34.6520  -33.8904 H   0  0  0  0  0  0  0  0  0  0  0  0
  -11.4143  -27.6488  -37.5864 H   0  0  0  0  0  0  0  0  0  0  0  0
  -16.6799  -26.1713  -35.5509 H   0  0  0  0  0  0  0  0  0  0  0  0
   -9.5289  -29.0796  -36.8972 H   0  0  0  0  0  0  0  0  0  0  0  0
  -19.0502  -26.1130  -36.1902 H   0  0  0  0  0  0  0  0  0  0  0  0
   -9.3378  -27.0338  -33.1194 H   0  0  0  0  0  0  0  0  0  0  0  0
  -15.6829  -23.7099  -38.9355 H   0  0  0  0  0  0  0  0  0  0  0  0
  -10.8242  -24.3694  -33.6956 H   0  0  0  0  0  0  0  0  0  0  0  0
  -12.4327  -25.1334  -33.6698 H   0  0  0  0  0  0  0  0  0  0  0  0
  -11.2146  -25.6247  -32.4941 H   0  0  0  0  0  0  0  0  0  0  0  0
  -10.5554  -35.6055  -34.6091 H   0  0  0  0  0  0  0  0  0  0  0  0
  -10.5317  -35.1136  -32.9005 H   0  0  0  0  0  0  0  0  0  0  0  0
  -12.0517  -35.1369  -33.8210 H   0  0  0  0  0  0  0  0  0  0  0  0
  -11.1883  -31.4555  -33.5939 H   0  0  0  0  0  0  0  0  0  0  0  0
  -10.8607  -32.6093  -32.3131 H   0  0  0  0  0  0  0  0  0  0  0  0
  -12.4240  -32.6566  -33.1579 H   0  0  0  0  0  0  0  0  0  0  0  0
  -11.1817  -32.1691  -36.0067 H   0  0  0  0  0  0  0  0  0  0  0  0
  -10.9022  -33.8669  -36.4501 H   0  0  0  0  0  0  0  0  0  0  0  0
  -12.4296  -33.3624  -35.6918 H   0  0  0  0  0  0  0  0  0  0  0  0
   -6.6804  -28.7243  -35.8716 H   0  0  0  0  0  0  0  0  0  0  0  0
   -8.0801  -29.5899  -36.5261 H   0  0  0  0  0  0  0  0  0  0  0  0
  -14.1922  -24.0757  -36.8818 H   0  0  0  0  0  0  0  0  0  0  0  0
  -12.2728  -24.7483  -36.3481 H   0  0  0  0  0  0  0  0  0  0  0  0
  1  2  2  0  0  0  0
  1  3  1  0  0  0  0
  2  4  1  0  0  0  0
  3 12  2  0  0  0  0
  4 13  2  0  0  0  0
  5  7  1  0  0  0  0
  5 15  2  0  0  0  0
  6  8  1  0  0  0  0
  6 14  2  0  0  0  0
  7 16  2  0  0  0  0
  8 17  2  0  0  0  0
  9 11  2  0  0  0  0
  9 16  1  0  0  0  0
 10 14  1  0  0  0  0
 10 18  2  0  0  0  0
 11 15  1  0  0  0  0
 11 22  1  0  0  0  0
 12 13  1  0  0  0  0
 12 28  1  0  0  0  0
 13 29  1  0  0  0  0
 14 30  1  0  0  0  0
 15 31  1  0  0  0  0
 16 33  1  0  0  0  0
 17 18  1  0  0  0  0
 17 36  1  0  0  0  0
 18 37  1  0  0  0  0
 19 26  1  0  0  0  0
 19 28  2  0  0  0  0
 19 29  1  0  0  0  0
 20 29  1  0  0  0  0
 20 32  2  0  0  0  0
 20 34  1  0  0  0  0
 21 30  1  0  0  0  0
 21 31  1  0  0  0  0
 21 35  2  0  0  0  0
 23 27  1  0  0  0  0
 24 27  1  0  0  0  0
 25 27  1  0  0  0  0
 26 33  1  0  0  0  0
 27 34  1  0  0  0  0
  1 38  1  0  0  0  0
  2 39  1  0  0  0  0
  3 40  1  0  0  0  0
  4 41  1  0  0  0  0
  5 42  1  0  0  0  0
  6 43  1  0  0  0  0
  7 44  1  0  0  0  0
  8 45  1  0  0  0  0
  9 46  1  0  0  0  0
 10 47  1  0  0  0  0
 22 48  1  0  0  0  0
 22 49  1  0  0  0  0
 22 50  1  0  0  0  0
 23 51  1  0  0  0  0
 23 52  1  0  0  0  0
 23 53  1  0  0  0  0
 24 54  1  0  0  0  0
 24 55  1  0  0  0  0
 24 56  1  0  0  0  0
 25 57  1  0  0  0  0
 25 58  1  0  0  0  0
 25 59  1  0  0  0  0
 26 60  1  0  0  0  0
 26 61  1  0  0  0  0
 30 62  1  0  0  0  0
 31 63  1  0  0  0  0
M  END
> <Name>
EZ_15

> <SourceTag>
EZ_15

> <Activity_FLAP>
100

> <Activity_sEH>
100000

> <Gold.Version>
5.2

> <Gold.Id.Protein>
6HGV|6HGV_protein|mol2

> <Gold.PLP.Fitness>
85.5049

> <Gold.PLP.PLP>
-82.4168

> <Gold.PLP.part.hbond>
-3.2236

> <Gold.PLP.part.metal>
0.0000

> <Gold.PLP.part.buried>
17.5848

> <Gold.PLP.part.nonpolar>
-97.7826

> <Gold.PLP.part.repulsive>
0.1086

> <Gold.PLP.ligand.clash>
0.0000

> <Gold.PLP.ligand.torsion>
1.5474

> <Gold.PLP.Chemscore.Hbond>
1.1901

> <Gold.PLP.Chemscore.CHOScore>
0.0000

> <Gold.PLP.Chemscore.Metal>
0.0000

> <Gold.Chemscore.Hbonds>
donor molecule, donor type, donor heavy atom, donor atom, acceptor molecule, acceptor atom, score
      L1  H    30    62       P1   853  0.54
      L1  H    31    63       P1   853  0.02
      P1  H  1256  3854       L1    32  0.06
      P1  H  1256  3855       L1    35  0.47
      P1  H  1247  3847       L1    35  0.10

> <Gold.PLP.Chemscore.Internal.Correction>
0.6604

> <Gold.Protein.RotatedTorsions>
[ 3525  925  924  922 ] final  -70.97 input   59.99 | X-H torsion
[ 3781 1176 1175 1172 ] final  -36.60 input   60.00 | X-H torsion
[ 4531 1957 1955 1953 ] final   24.10 input   60.00 | X-H torsion
[ 3847 1247 1246 1244 ] final  122.15 input   60.00 | X-H torsion
[ 4507 1931 1930 1928 ] final  114.26 input   60.00 | X-H torsion
[ 3677 1070 1069 1066 ] final  143.84 input   60.00 | X-H torsion

> <Gold.Protein.ActiveResidues>
 GLY266  PHE267  PRO268  GLU269  MET310  HIS334  ASP335  TRP336  GLY337  GLY338 
 MET339  LEU340  TRP342  TYR343  LEU358  ASN359  THR360  PRO361  ILE363  ALA365 
 MET369  SER370  PRO371  LEU372  GLU373  SER374  ILE375  LYS376  ALA377  ASN378 
 VAL380  PHE381  ASP382  TYR383  GLN384  PHE387  GLN388  LEU397  SER407  LEU408 
 PHE409  ARG410  LEU417  MET419  LEU428  PHE429  PHE459  TRP465  TYR466  ASN468 
 MET469  GLU470  ASN472  TRP473  ALA476  ASP496  PHE497  VAL498  LEU499  MET503 
 HIS524  TRP525 

> <Gold.Protein.RotatedAtoms>
   -3.6281  -29.6315  -29.3925 H   0  0  0  0  0  0  0  0  0  0  0  0  # atno 3525 bound_to 925 
  -11.2978  -22.3436  -30.8285 H   0  0  0  0  0  0  0  0  0  0  0  0  # atno 3677 bound_to 1070
  -10.5215  -36.9031  -34.0654 H   0  0  0  0  0  0  0  0  0  0  0  0  # atno 3781 bound_to 1176
  -14.3119  -28.2570  -37.7799 H   0  0  0  0  0  0  0  0  0  0  0  0  # atno 3847 bound_to 1247
  -12.4355  -23.9846  -39.2783 H   0  0  0  0  0  0  0  0  0  0  0  0  # atno 4507 bound_to 1931
   -3.0517  -32.8381  -36.6578 H   0  0  0  0  0  0  0  0  0  0  0  0  # atno 4531 bound_to 1957
   -2.1393  -30.2684  -29.5532 LP  0  0  0  0  0  0  0  0  0  0  0  0  # atno 5201 bound_to 925 
   -2.9706  -29.7852  -30.8731 LP  0  0  0  0  0  0  0  0  0  0  0  0  # atno 5202 bound_to 925 
   -9.2449  -36.3692  -33.2090 LP  0  0  0  0  0  0  0  0  0  0  0  0  # atno 5205 bound_to 1176
  -10.3409  -37.3606  -32.5142 LP  0  0  0  0  0  0  0  0  0  0  0  0  # atno 5206 bound_to 1176
   -1.4856  -32.5037  -36.9474 LP  0  0  0  0  0  0  0  0  0  0  0  0  # atno 5213 bound_to 1957
   -1.9930  -34.0543  -36.8777 LP  0  0  0  0  0  0  0  0  0  0  0  0  # atno 5214 bound_to 1957
  -15.6842  -28.7429  -37.0527 LP  0  0  0  0  0  0  0  0  0  0  0  0  # atno 5227 bound_to 1247
  -15.5745  -27.2360  -37.6722 LP  0  0  0  0  0  0  0  0  0  0  0  0  # atno 5228 bound_to 1247
  -13.3197  -25.3446  -39.1499 LP  0  0  0  0  0  0  0  0  0  0  0  0  # atno 5245 bound_to 1931
  -13.4441  -24.4092  -40.4826 LP  0  0  0  0  0  0  0  0  0  0  0  0  # atno 5246 bound_to 1931
  -12.7698  -22.9127  -30.4318 LP  0  0  0  0  0  0  0  0  0  0  0  0  # atno 5265 bound_to 1070
  -11.7911  -23.7819  -31.4081 LP  0  0  0  0  0  0  0  0  0  0  0  0  # atno 5266 bound_to 1070

$$$$
EZ_15|Lisa_paper2_min|sdf|3|dock7
  -GOLD-  10202014253D 1   1.00000     0.00000

 63 66  0  0  0  0  0  0  0  0  1 V2000
   -2.9134  -32.7650  -32.3115 C   0  0  0  0  0  0  0  0  0  0  0  0
   -3.9388  -33.3366  -31.5611 C   0  0  0  0  0  0  0  0  0  0  0  0
   -3.1978  -31.8458  -33.3255 C   0  0  0  0  0  0  0  0  0  0  0  0
   -5.2788  -33.0099  -31.7975 C   0  0  0  0  0  0  0  0  0  0  0  0
  -10.6047  -28.0065  -36.7564 C   0  0  0  0  0  0  0  0  0  0  0  0
  -16.4871  -25.3450  -36.5570 C   0  0  0  0  0  0  0  0  0  0  0  0
   -9.6003  -28.7525  -36.1397 C   0  0  0  0  0  0  0  0  0  0  0  0
  -17.8609  -25.1629  -36.7156 C   0  0  0  0  0  0  0  0  0  0  0  0
   -9.6133  -27.2236  -34.2691 C   0  0  0  0  0  0  0  0  0  0  0  0
  -16.1394  -24.7371  -38.8692 C   0  0  0  0  0  0  0  0  0  0  0  0
  -10.6176  -26.4774  -34.8859 C   0  0  0  0  0  0  0  0  0  0  0  0
   -4.5392  -31.5064  -33.5766 C   0  0  0  0  0  0  0  0  0  0  0  0
   -5.5553  -32.0870  -32.8166 C   0  0  0  0  0  0  0  0  0  0  0  0
  -15.6263  -25.1322  -37.6337 C   0  0  0  0  0  0  0  0  0  0  0  0
  -11.1132  -26.8689  -36.1295 C   0  0  0  0  0  0  0  0  0  0  0  0
   -9.1046  -28.3611  -34.8961 C   0  0  0  0  0  0  0  0  0  0  0  0
  -18.3739  -24.7679  -37.9512 C   0  0  0  0  0  0  0  0  0  0  0  0
  -17.5132  -24.5550  -39.0280 C   0  0  0  0  0  0  0  0  0  0  0  0
   -6.3518  -30.6839  -34.3287 C   0  0  0  0  0  0  0  0  0  0  0  0
   -8.0370  -31.8069  -32.8857 C   0  0  0  0  0  0  0  0  0  0  0  0
  -13.5102  -26.2141  -36.6982 C   0  0  0  0  0  0  0  0  0  0  0  0
  -11.1432  -25.2635  -34.1910 C   0  0  0  0  0  0  0  0  0  0  0  0
  -10.4007  -32.8801  -31.6356 C   0  0  0  0  0  0  0  0  0  0  0  0
   -8.8309  -33.5900  -29.8076 C   0  0  0  0  0  0  0  0  0  0  0  0
   -9.0757  -31.1545  -30.3702 C   0  0  0  0  0  0  0  0  0  0  0  0
   -7.2937  -29.8826  -35.1438 C   0  0  0  0  0  0  0  0  0  0  0  0
   -9.0826  -32.5786  -30.9240 C   0  0  0  0  0  0  0  0  0  0  0  0
   -5.0526  -30.6424  -34.5059 N   0  0  0  0  0  0  0  0  0  0  0  0
   -6.7321  -31.5422  -33.3165 N   0  0  0  0  0  0  0  0  0  0  0  0
  -14.2304  -25.3168  -37.4719 N   0  0  0  0  0  0  0  0  0  0  0  0
  -12.1175  -26.1337  -36.7643 N   0  0  0  0  0  0  0  0  0  0  0  0
   -8.9996  -31.2653  -33.4036 O   0  0  0  0  0  0  0  0  0  0  0  0
   -8.1197  -29.0935  -34.2907 O   0  0  0  0  0  0  0  0  0  0  0  0
   -8.0158  -32.7052  -31.8688 O   0  0  0  0  0  0  0  0  0  0  0  0
  -14.3985  -27.3882  -35.8779 S   0  0  0  0  0  0  0  0  0  0  0  0
  -20.0850  -24.5620  -38.0850 Cl  0  0  0  0  0  0  0  0  0  0  0  0
  -18.0886  -24.0670  -40.5835 Cl  0  0  0  0  0  0  0  0  0  0  0  0
   -1.8810  -33.0359  -32.1076 H   0  0  0  0  0  0  0  0  0  0  0  0
   -3.6948  -34.0498  -30.7776 H   0  0  0  0  0  0  0  0  0  0  0  0
   -2.3937  -31.4047  -33.9064 H   0  0  0  0  0  0  0  0  0  0  0  0
   -6.0576  -33.4687  -31.1999 H   0  0  0  0  0  0  0  0  0  0  0  0
  -10.9824  -28.3207  -37.7264 H   0  0  0  0  0  0  0  0  0  0  0  0
  -16.0975  -25.6515  -35.5896 H   0  0  0  0  0  0  0  0  0  0  0  0
   -9.2086  -29.6380  -36.6329 H   0  0  0  0  0  0  0  0  0  0  0  0
  -18.5166  -25.3319  -35.8652 H   0  0  0  0  0  0  0  0  0  0  0  0
   -9.2245  -26.9208  -33.2998 H   0  0  0  0  0  0  0  0  0  0  0  0
  -15.4630  -24.5739  -39.7059 H   0  0  0  0  0  0  0  0  0  0  0  0
  -10.5629  -24.3800  -34.4805 H   0  0  0  0  0  0  0  0  0  0  0  0
  -12.1963  -25.0887  -34.4423 H   0  0  0  0  0  0  0  0  0  0  0  0
  -11.0888  -25.3768  -33.1014 H   0  0  0  0  0  0  0  0  0  0  0  0
  -10.5850  -32.1564  -32.4374 H   0  0  0  0  0  0  0  0  0  0  0  0
  -10.4050  -33.8862  -32.0674 H   0  0  0  0  0  0  0  0  0  0  0  0
  -11.2466  -32.7968  -30.9436 H   0  0  0  0  0  0  0  0  0  0  0  0
   -7.8861  -33.3774  -29.2943 H   0  0  0  0  0  0  0  0  0  0  0  0
   -8.7406  -34.6042  -30.2130 H   0  0  0  0  0  0  0  0  0  0  0  0
   -9.6371  -33.5832  -29.0670 H   0  0  0  0  0  0  0  0  0  0  0  0
   -8.1302  -30.9379  -29.8598 H   0  0  0  0  0  0  0  0  0  0  0  0
   -9.2181  -30.4129  -31.1630 H   0  0  0  0  0  0  0  0  0  0  0  0
   -9.8673  -31.0227  -29.6238 H   0  0  0  0  0  0  0  0  0  0  0  0
   -6.7658  -29.2044  -35.8342 H   0  0  0  0  0  0  0  0  0  0  0  0
   -7.9455  -30.5234  -35.7601 H   0  0  0  0  0  0  0  0  0  0  0  0
  -13.6566  -24.7027  -38.0463 H   0  0  0  0  0  0  0  0  0  0  0  0
  -11.7860  -25.4774  -37.4790 H   0  0  0  0  0  0  0  0  0  0  0  0
  1  2  2  0  0  0  0
  1  3  1  0  0  0  0
  2  4  1  0  0  0  0
  3 12  2  0  0  0  0
  4 13  2  0  0  0  0
  5  7  1  0  0  0  0
  5 15  2  0  0  0  0
  6  8  1  0  0  0  0
  6 14  2  0  0  0  0
  7 16  2  0  0  0  0
  8 17  2  0  0  0  0
  9 11  2  0  0  0  0
  9 16  1  0  0  0  0
 10 14  1  0  0  0  0
 10 18  2  0  0  0  0
 11 15  1  0  0  0  0
 11 22  1  0  0  0  0
 12 13  1  0  0  0  0
 12 28  1  0  0  0  0
 13 29  1  0  0  0  0
 14 30  1  0  0  0  0
 15 31  1  0  0  0  0
 16 33  1  0  0  0  0
 17 18  1  0  0  0  0
 17 36  1  0  0  0  0
 18 37  1  0  0  0  0
 19 26  1  0  0  0  0
 19 28  2  0  0  0  0
 19 29  1  0  0  0  0
 20 29  1  0  0  0  0
 20 32  2  0  0  0  0
 20 34  1  0  0  0  0
 21 30  1  0  0  0  0
 21 31  1  0  0  0  0
 21 35  2  0  0  0  0
 23 27  1  0  0  0  0
 24 27  1  0  0  0  0
 25 27  1  0  0  0  0
 26 33  1  0  0  0  0
 27 34  1  0  0  0  0
  1 38  1  0  0  0  0
  2 39  1  0  0  0  0
  3 40  1  0  0  0  0
  4 41  1  0  0  0  0
  5 42  1  0  0  0  0
  6 43  1  0  0  0  0
  7 44  1  0  0  0  0
  8 45  1  0  0  0  0
  9 46  1  0  0  0  0
 10 47  1  0  0  0  0
 22 48  1  0  0  0  0
 22 49  1  0  0  0  0
 22 50  1  0  0  0  0
 23 51  1  0  0  0  0
 23 52  1  0  0  0  0
 23 53  1  0  0  0  0
 24 54  1  0  0  0  0
 24 55  1  0  0  0  0
 24 56  1  0  0  0  0
 25 57  1  0  0  0  0
 25 58  1  0  0  0  0
 25 59  1  0  0  0  0
 26 60  1  0  0  0  0
 26 61  1  0  0  0  0
 30 62  1  0  0  0  0
 31 63  1  0  0  0  0
M  END
> <Name>
EZ_15

> <SourceTag>
EZ_15

> <Activity_FLAP>
100

> <Activity_sEH>
100000

> <Gold.Version>
5.2

> <Gold.Id.Protein>
6HGV|6HGV_protein|mol2

> <Gold.PLP.Fitness>
85.3975

> <Gold.PLP.PLP>
-83.6787

> <Gold.PLP.part.hbond>
-5.5186

> <Gold.PLP.part.metal>
0.0000

> <Gold.PLP.part.buried>
10.3492

> <Gold.PLP.part.nonpolar>
-88.7756

> <Gold.PLP.part.repulsive>
0.0836

> <Gold.PLP.ligand.clash>
0.0103

> <Gold.PLP.ligand.torsion>
1.7438

> <Gold.PLP.Chemscore.Hbond>
0.8420

> <Gold.PLP.Chemscore.CHOScore>
0.0000

> <Gold.PLP.Chemscore.Metal>
0.0000

> <Gold.Chemscore.Hbonds>
donor molecule, donor type, donor heavy atom, donor atom, acceptor molecule, acceptor atom, score
      L1  H    30    62       P1  1931  0.74
      P1  H  1247  3847       L1    35  0.10

> <Gold.PLP.Chemscore.Internal.Correction>
0.6604

> <Gold.Protein.RotatedTorsions>
[ 3525  925  924  922 ] final -158.83 input   59.99 | X-H torsion
[ 3781 1176 1175 1172 ] final  -86.25 input   60.00 | X-H torsion
[ 4531 1957 1955 1953 ] final   44.90 input   60.00 | X-H torsion
[ 3847 1247 1246 1244 ] final  -26.12 input   60.00 | X-H torsion
[ 4507 1931 1930 1928 ] final -160.81 input   60.00 | X-H torsion
[ 3677 1070 1069 1066 ] final   62.20 input   60.00 | X-H torsion

> <Gold.Protein.ActiveResidues>
 GLY266  PHE267  PRO268  GLU269  MET310  HIS334  ASP335  TRP336  GLY337  GLY338 
 MET339  LEU340  TRP342  TYR343  LEU358  ASN359  THR360  PRO361  ILE363  ALA365 
 MET369  SER370  PRO371  LEU372  GLU373  SER374  ILE375  LYS376  ALA377  ASN378 
 VAL380  PHE381  ASP382  TYR383  GLN384  PHE387  GLN388  LEU397  SER407  LEU408 
 PHE409  ARG410  LEU417  MET419  LEU428  PHE429  PHE459  TRP465  TYR466  ASN468 
 MET469  GLU470  ASN472  TRP473  ALA476  ASP496  PHE497  VAL498  LEU499  MET503 
 HIS524  TRP525 

> <Gold.Protein.RotatedAtoms>
   -2.4642  -30.1600  -29.1615 H   0  0  0  0  0  0  0  0  0  0  0  0  # atno 3525 bound_to 925 
  -12.4110  -22.4216  -30.3256 H   0  0  0  0  0  0  0  0  0  0  0  0  # atno 3677 bound_to 1070
   -9.8715  -36.4614  -34.0869 H   0  0  0  0  0  0  0  0  0  0  0  0  # atno 3781 bound_to 1176
  -15.9674  -28.3831  -37.0819 H   0  0  0  0  0  0  0  0  0  0  0  0  # atno 3847 bound_to 1247
  -13.0793  -23.9922  -40.3662 H   0  0  0  0  0  0  0  0  0  0  0  0  # atno 4507 bound_to 1931
   -3.0981  -33.1730  -36.6548 H   0  0  0  0  0  0  0  0  0  0  0  0  # atno 4531 bound_to 1957
   -2.5028  -29.9976  -30.7802 LP  0  0  0  0  0  0  0  0  0  0  0  0  # atno 5201 bound_to 925 
   -3.7791  -29.5237  -29.8786 LP  0  0  0  0  0  0  0  0  0  0  0  0  # atno 5202 bound_to 925 
   -9.4428  -36.7503  -32.5439 LP  0  0  0  0  0  0  0  0  0  0  0  0  # atno 5205 bound_to 1176
  -10.7976  -37.4243  -33.1577 LP  0  0  0  0  0  0  0  0  0  0  0  0  # atno 5206 bound_to 1176
   -1.7491  -32.2948  -36.8937 LP  0  0  0  0  0  0  0  0  0  0  0  0  # atno 5213 bound_to 1957
   -1.6828  -33.9259  -36.9345 LP  0  0  0  0  0  0  0  0  0  0  0  0  # atno 5214 bound_to 1957
  -15.1512  -27.2038  -37.8507 LP  0  0  0  0  0  0  0  0  0  0  0  0  # atno 5227 bound_to 1247
  -14.4402  -28.6482  -37.5772 LP  0  0  0  0  0  0  0  0  0  0  0  0  # atno 5228 bound_to 1247
  -12.5064  -24.3980  -38.8982 LP  0  0  0  0  0  0  0  0  0  0  0  0  # atno 5245 bound_to 1931
  -13.6090  -25.3480  -39.6387 LP  0  0  0  0  0  0  0  0  0  0  0  0  # atno 5246 bound_to 1931
  -12.3545  -23.8214  -31.1536 LP  0  0  0  0  0  0  0  0  0  0  0  0  # atno 5265 bound_to 1070
  -11.0854  -22.7946  -31.1927 LP  0  0  0  0  0  0  0  0  0  0  0  0  # atno 5266 bound_to 1070

$$$$
EZ_15|Lisa_paper2_min|sdf|3|dock5
  -GOLD-  10202014253D 1   1.00000     0.00000

 63 66  0  0  0  0  0  0  0  0  1 V2000
   -3.3009  -33.6473  -32.6562 C   0  0  0  0  0  0  0  0  0  0  0  0
   -4.2485  -34.6567  -32.4991 C   0  0  0  0  0  0  0  0  0  0  0  0
   -3.6352  -32.4464  -33.2888 C   0  0  0  0  0  0  0  0  0  0  0  0
   -5.5580  -34.5007  -32.9671 C   0  0  0  0  0  0  0  0  0  0  0  0
  -10.6362  -28.0646  -36.6005 C   0  0  0  0  0  0  0  0  0  0  0  0
  -16.1966  -25.3236  -36.6997 C   0  0  0  0  0  0  0  0  0  0  0  0
   -9.7008  -28.9745  -36.1078 C   0  0  0  0  0  0  0  0  0  0  0  0
  -17.5386  -25.1085  -37.0133 C   0  0  0  0  0  0  0  0  0  0  0  0
   -9.2265  -27.4880  -34.2632 C   0  0  0  0  0  0  0  0  0  0  0  0
  -15.5379  -23.9725  -38.5912 C   0  0  0  0  0  0  0  0  0  0  0  0
  -10.1618  -26.5780  -34.7560 C   0  0  0  0  0  0  0  0  0  0  0  0
   -4.9468  -32.2731  -33.7654 C   0  0  0  0  0  0  0  0  0  0  0  0
   -5.8848  -33.2929  -33.6006 C   0  0  0  0  0  0  0  0  0  0  0  0
  -15.1962  -24.7557  -37.4886 C   0  0  0  0  0  0  0  0  0  0  0  0
  -10.8666  -26.8663  -35.9246 C   0  0  0  0  0  0  0  0  0  0  0  0
   -8.9959  -28.6862  -34.9392 C   0  0  0  0  0  0  0  0  0  0  0  0
  -17.8802  -24.3253  -38.1159 C   0  0  0  0  0  0  0  0  0  0  0  0
  -16.8799  -23.7573  -38.9049 C   0  0  0  0  0  0  0  0  0  0  0  0
   -6.7433  -31.5388  -34.6378 C   0  0  0  0  0  0  0  0  0  0  0  0
   -8.2886  -33.4506  -34.2632 C   0  0  0  0  0  0  0  0  0  0  0  0
  -13.1846  -26.0751  -36.6306 C   0  0  0  0  0  0  0  0  0  0  0  0
  -10.3877  -25.3024  -34.0112 C   0  0  0  0  0  0  0  0  0  0  0  0
  -10.6361  -32.6588  -32.9744 C   0  0  0  0  0  0  0  0  0  0  0  0
  -11.3845  -31.7732  -35.2027 C   0  0  0  0  0  0  0  0  0  0  0  0
  -10.9926  -34.2359  -34.9032 C   0  0  0  0  0  0  0  0  0  0  0  0
   -7.7015  -30.6434  -35.3261 C   0  0  0  0  0  0  0  0  0  0  0  0
  -10.5481  -32.8337  -34.4898 C   0  0  0  0  0  0  0  0  0  0  0  0
   -5.4973  -31.1978  -34.4090 N   0  0  0  0  0  0  0  0  0  0  0  0
   -7.0521  -32.8017  -34.1733 N   0  0  0  0  0  0  0  0  0  0  0  0
  -13.8327  -24.9740  -37.1692 N   0  0  0  0  0  0  0  0  0  0  0  0
  -11.8060  -25.9670  -36.4352 N   0  0  0  0  0  0  0  0  0  0  0  0
   -8.4509  -34.5740  -33.8162 O   0  0  0  0  0  0  0  0  0  0  0  0
   -8.0787  -29.5793  -34.4554 O   0  0  0  0  0  0  0  0  0  0  0  0
   -9.1871  -32.6504  -34.8909 O   0  0  0  0  0  0  0  0  0  0  0  0
  -14.1126  -27.4640  -36.4065 S   0  0  0  0  0  0  0  0  0  0  0  0
  -19.5602  -24.0985  -38.4542 Cl  0  0  0  0  0  0  0  0  0  0  0  0
  -17.2400  -22.7797  -40.2845 Cl  0  0  0  0  0  0  0  0  0  0  0  0
   -2.2907  -33.7938  -32.2836 H   0  0  0  0  0  0  0  0  0  0  0  0
   -3.9665  -35.5829  -32.0045 H   0  0  0  0  0  0  0  0  0  0  0  0
   -2.8915  -31.6645  -33.4080 H   0  0  0  0  0  0  0  0  0  0  0  0
   -6.2760  -35.3010  -32.8326 H   0  0  0  0  0  0  0  0  0  0  0  0
  -11.1787  -28.2997  -37.5129 H   0  0  0  0  0  0  0  0  0  0  0  0
  -15.9412  -25.9341  -35.8374 H   0  0  0  0  0  0  0  0  0  0  0  0
   -9.5261  -29.9064  -36.6385 H   0  0  0  0  0  0  0  0  0  0  0  0
  -18.3049  -25.5576  -36.3865 H   0  0  0  0  0  0  0  0  0  0  0  0
   -8.6751  -27.2659  -33.3527 H   0  0  0  0  0  0  0  0  0  0  0  0
  -14.7530  -23.5332  -39.2037 H   0  0  0  0  0  0  0  0  0  0  0  0
   -9.7095  -24.5239  -34.3784 H   0  0  0  0  0  0  0  0  0  0  0  0
  -11.4202  -24.9524  -34.1304 H   0  0  0  0  0  0  0  0  0  0  0  0
  -10.2176  -25.4368  -32.9361 H   0  0  0  0  0  0  0  0  0  0  0  0
  -10.0372  -33.4180  -32.4591 H   0  0  0  0  0  0  0  0  0  0  0  0
  -10.2872  -31.6692  -32.6616 H   0  0  0  0  0  0  0  0  0  0  0  0
  -11.6669  -32.7887  -32.6250 H   0  0  0  0  0  0  0  0  0  0  0  0
  -11.3243  -31.8950  -36.2902 H   0  0  0  0  0  0  0  0  0  0  0  0
  -11.0087  -30.7673  -34.9833 H   0  0  0  0  0  0  0  0  0  0  0  0
  -12.4373  -31.8224  -34.9061 H   0  0  0  0  0  0  0  0  0  0  0  0
  -10.9295  -34.3617  -35.9901 H   0  0  0  0  0  0  0  0  0  0  0  0
  -10.3792  -35.0094  -34.4296 H   0  0  0  0  0  0  0  0  0  0  0  0
  -12.0406  -34.4082  -34.6323 H   0  0  0  0  0  0  0  0  0  0  0  0
   -7.2693  -30.2031  -36.2397 H   0  0  0  0  0  0  0  0  0  0  0  0
   -8.6144  -31.1811  -35.6306 H   0  0  0  0  0  0  0  0  0  0  0  0
  -13.2174  -24.1976  -37.4033 H   0  0  0  0  0  0  0  0  0  0  0  0
  -11.4108  -25.1050  -36.8255 H   0  0  0  0  0  0  0  0  0  0  0  0
  1  2  2  0  0  0  0
  1  3  1  0  0  0  0
  2  4  1  0  0  0  0
  3 12  2  0  0  0  0
  4 13  2  0  0  0  0
  5  7  1  0  0  0  0
  5 15  2  0  0  0  0
  6  8  1  0  0  0  0
  6 14  2  0  0  0  0
  7 16  2  0  0  0  0
  8 17  2  0  0  0  0
  9 11  2  0  0  0  0
  9 16  1  0  0  0  0
 10 14  1  0  0  0  0
 10 18  2  0  0  0  0
 11 15  1  0  0  0  0
 11 22  1  0  0  0  0
 12 13  1  0  0  0  0
 12 28  1  0  0  0  0
 13 29  1  0  0  0  0
 14 30  1  0  0  0  0
 15 31  1  0  0  0  0
 16 33  1  0  0  0  0
 17 18  1  0  0  0  0
 17 36  1  0  0  0  0
 18 37  1  0  0  0  0
 19 26  1  0  0  0  0
 19 28  2  0  0  0  0
 19 29  1  0  0  0  0
 20 29  1  0  0  0  0
 20 32  2  0  0  0  0
 20 34  1  0  0  0  0
 21 30  1  0  0  0  0
 21 31  1  0  0  0  0
 21 35  2  0  0  0  0
 23 27  1  0  0  0  0
 24 27  1  0  0  0  0
 25 27  1  0  0  0  0
 26 33  1  0  0  0  0
 27 34  1  0  0  0  0
  1 38  1  0  0  0  0
  2 39  1  0  0  0  0
  3 40  1  0  0  0  0
  4 41  1  0  0  0  0
  5 42  1  0  0  0  0
  6 43  1  0  0  0  0
  7 44  1  0  0  0  0
  8 45  1  0  0  0  0
  9 46  1  0  0  0  0
 10 47  1  0  0  0  0
 22 48  1  0  0  0  0
 22 49  1  0  0  0  0
 22 50  1  0  0  0  0
 23 51  1  0  0  0  0
 23 52  1  0  0  0  0
 23 53  1  0  0  0  0
 24 54  1  0  0  0  0
 24 55  1  0  0  0  0
 24 56  1  0  0  0  0
 25 57  1  0  0  0  0
 25 58  1  0  0  0  0
 25 59  1  0  0  0  0
 26 60  1  0  0  0  0
 26 61  1  0  0  0  0
 30 62  1  0  0  0  0
 31 63  1  0  0  0  0
M  END
> <Name>
EZ_15

> <SourceTag>
EZ_15

> <Activity_FLAP>
100

> <Activity_sEH>
100000

> <Gold.Version>
5.2

> <Gold.Id.Protein>
6HGV|6HGV_protein|mol2

> <Gold.PLP.Fitness>
83.6840

> <Gold.PLP.PLP>
-87.0011

> <Gold.PLP.part.hbond>
-6.0000

> <Gold.PLP.part.metal>
0.0000

> <Gold.PLP.part.buried>
16.1968

> <Gold.PLP.part.nonpolar>
-97.0140

> <Gold.PLP.part.repulsive>
0.1167

> <Gold.PLP.ligand.clash>
8.6440

> <Gold.PLP.ligand.torsion>
1.5126

> <Gold.PLP.Chemscore.Hbond>
1.8500

> <Gold.PLP.Chemscore.CHOScore>
0.0000

> <Gold.PLP.Chemscore.Metal>
0.0000

> <Gold.Chemscore.Hbonds>
donor molecule, donor type, donor heavy atom, donor atom, acceptor molecule, acceptor atom, score
      L1  H    30    62       P1  1931  0.20
      P1  H  1176  3781       L1    32  1.00
      P1  H  1256  3855       L1    35  0.37
      P1  H  1247  3847       L1    35  0.28

> <Gold.PLP.Chemscore.Internal.Correction>
0.6604

> <Gold.Protein.RotatedTorsions>
[ 3525  925  924  922 ] final   -3.04 input   59.99 | X-H torsion
[ 3781 1176 1175 1172 ] final -138.07 input   60.00 | X-H torsion
[ 4531 1957 1955 1953 ] final  142.39 input   60.00 | X-H torsion
[ 3847 1247 1246 1244 ] final  115.48 input   60.00 | X-H torsion
[ 4507 1931 1930 1928 ] final -108.73 input   60.00 | X-H torsion
[ 3677 1070 1069 1066 ] final -158.23 input   60.00 | X-H torsion

> <Gold.Protein.ActiveResidues>
 GLY266  PHE267  PRO268  GLU269  MET310  HIS334  ASP335  TRP336  GLY337  GLY338 
 MET339  LEU340  TRP342  TYR343  LEU358  ASN359  THR360  PRO361  ILE363  ALA365 
 MET369  SER370  PRO371  LEU372  GLU373  SER374  ILE375  LYS376  ALA377  ASN378 
 VAL380  PHE381  ASP382  TYR383  GLN384  PHE387  GLN388  LEU397  SER407  LEU408 
 PHE409  ARG410  LEU417  MET419  LEU428  PHE429  PHE459  TRP465  TYR466  ASN468 
 MET469  GLU470  ASN472  TRP473  ALA476  ASP496  PHE497  VAL498  LEU499  MET503 
 HIS524  TRP525 

> <Gold.Protein.RotatedAtoms>
   -3.6238  -29.5380  -30.4345 H   0  0  0  0  0  0  0  0  0  0  0  0  # atno 3525 bound_to 925 
  -11.1285  -23.0795  -31.3308 H   0  0  0  0  0  0  0  0  0  0  0  0  # atno 3677 bound_to 1070
   -9.3238  -36.3171  -33.4965 H   0  0  0  0  0  0  0  0  0  0  0  0  # atno 3781 bound_to 1176
  -14.3252  -28.3561  -37.7368 H   0  0  0  0  0  0  0  0  0  0  0  0  # atno 3847 bound_to 1247
  -13.5720  -24.6480  -40.4199 H   0  0  0  0  0  0  0  0  0  0  0  0  # atno 4507 bound_to 1931
   -2.0216  -34.0531  -36.8747 H   0  0  0  0  0  0  0  0  0  0  0  0  # atno 4531 bound_to 1957
   -2.9784  -29.9532  -28.9995 LP  0  0  0  0  0  0  0  0  0  0  0  0  # atno 5201 bound_to 925 
   -2.1359  -30.1944  -30.3774 LP  0  0  0  0  0  0  0  0  0  0  0  0  # atno 5202 bound_to 925 
  -10.0901  -37.2379  -32.3951 LP  0  0  0  0  0  0  0  0  0  0  0  0  # atno 5205 bound_to 1176
  -10.7019  -37.0820  -33.9011 LP  0  0  0  0  0  0  0  0  0  0  0  0  # atno 5206 bound_to 1176
   -3.0482  -32.8096  -36.6556 LP  0  0  0  0  0  0  0  0  0  0  0  0  # atno 5213 bound_to 1957
   -1.4676  -32.5249  -36.9511 LP  0  0  0  0  0  0  0  0  0  0  0  0  # atno 5214 bound_to 1957
  -15.7659  -28.6699  -37.0485 LP  0  0  0  0  0  0  0  0  0  0  0  0  # atno 5227 bound_to 1247
  -15.4794  -27.2091  -37.7198 LP  0  0  0  0  0  0  0  0  0  0  0  0  # atno 5228 bound_to 1247
  -12.4815  -23.8473  -39.5157 LP  0  0  0  0  0  0  0  0  0  0  0  0  # atno 5245 bound_to 1931
  -13.1377  -25.2383  -38.9670 LP  0  0  0  0  0  0  0  0  0  0  0  0  # atno 5246 bound_to 1931
  -12.1428  -22.2521  -30.3639 LP  0  0  0  0  0  0  0  0  0  0  0  0  # atno 5265 bound_to 1070
  -12.5884  -23.7014  -30.9702 LP  0  0  0  0  0  0  0  0  0  0  0  0  # atno 5266 bound_to 1070

$$$$
EZ_15|Lisa_paper2_min|sdf|3|dock2
  -GOLD-  10202014253D 1   1.00000     0.00000

 63 66  0  0  0  0  0  0  0  0  1 V2000
   -3.2976  -33.0274  -32.9455 C   0  0  0  0  0  0  0  0  0  0  0  0
   -4.2266  -33.4639  -32.0034 C   0  0  0  0  0  0  0  0  0  0  0  0
   -3.6739  -32.1482  -33.9651 C   0  0  0  0  0  0  0  0  0  0  0  0
   -5.5588  -33.0378  -32.0477 C   0  0  0  0  0  0  0  0  0  0  0  0
  -10.7657  -27.4562  -36.7002 C   0  0  0  0  0  0  0  0  0  0  0  0
  -16.7208  -25.3145  -36.9021 C   0  0  0  0  0  0  0  0  0  0  0  0
   -9.7766  -28.2948  -36.1862 C   0  0  0  0  0  0  0  0  0  0  0  0
  -18.0566  -25.2090  -37.2894 C   0  0  0  0  0  0  0  0  0  0  0  0
   -9.8893  -27.1314  -34.0717 C   0  0  0  0  0  0  0  0  0  0  0  0
  -16.0676  -23.9437  -38.7813 C   0  0  0  0  0  0  0  0  0  0  0  0
  -10.8782  -26.2927  -34.5858 C   0  0  0  0  0  0  0  0  0  0  0  0
   -5.0089  -31.7102  -34.0245 C   0  0  0  0  0  0  0  0  0  0  0  0
   -5.9279  -32.1559  -33.0737 C   0  0  0  0  0  0  0  0  0  0  0  0
  -15.7262  -24.6820  -37.6480 C   0  0  0  0  0  0  0  0  0  0  0  0
  -11.3163  -26.4551  -35.9000 C   0  0  0  0  0  0  0  0  0  0  0  0
   -9.3384  -28.1325  -34.8719 C   0  0  0  0  0  0  0  0  0  0  0  0
  -18.3979  -24.4708  -38.4227 C   0  0  0  0  0  0  0  0  0  0  0  0
  -17.4034  -23.8382  -39.1687 C   0  0  0  0  0  0  0  0  0  0  0  0
   -6.8529  -30.7806  -34.5374 C   0  0  0  0  0  0  0  0  0  0  0  0
   -8.3593  -31.6684  -32.7694 C   0  0  0  0  0  0  0  0  0  0  0  0
  -13.6533  -25.8484  -36.7173 C   0  0  0  0  0  0  0  0  0  0  0  0
  -11.4499  -25.2290  -33.7057 C   0  0  0  0  0  0  0  0  0  0  0  0
   -9.1355  -33.6546  -29.7972 C   0  0  0  0  0  0  0  0  0  0  0  0
   -9.7712  -31.2860  -30.3406 C   0  0  0  0  0  0  0  0  0  0  0  0
  -10.5485  -33.1605  -31.8205 C   0  0  0  0  0  0  0  0  0  0  0  0
   -7.8524  -29.9506  -35.2487 C   0  0  0  0  0  0  0  0  0  0  0  0
   -9.4234  -32.6565  -30.9178 C   0  0  0  0  0  0  0  0  0  0  0  0
   -5.6008  -30.8612  -34.9204 N   0  0  0  0  0  0  0  0  0  0  0  0
   -7.1262  -31.5424  -33.4190 N   0  0  0  0  0  0  0  0  0  0  0  0
  -14.3690  -24.7889  -37.2537 N   0  0  0  0  0  0  0  0  0  0  0  0
  -12.3044  -25.6239  -36.4338 N   0  0  0  0  0  0  0  0  0  0  0  0
   -9.3500  -31.0774  -33.1660 O   0  0  0  0  0  0  0  0  0  0  0  0
   -8.3686  -28.9557  -34.3674 O   0  0  0  0  0  0  0  0  0  0  0  0
   -8.2398  -32.5040  -31.7068 O   0  0  0  0  0  0  0  0  0  0  0  0
  -14.4593  -27.3241  -36.6020 S   0  0  0  0  0  0  0  0  0  0  0  0
  -20.0699  -24.3803  -38.8525 Cl  0  0  0  0  0  0  0  0  0  0  0  0
  -17.7632  -22.9115  -40.5832 Cl  0  0  0  0  0  0  0  0  0  0  0  0
   -2.2691  -33.3735  -32.8886 H   0  0  0  0  0  0  0  0  0  0  0  0
   -3.9122  -34.1483  -31.2193 H   0  0  0  0  0  0  0  0  0  0  0  0
   -2.9447  -31.8125  -34.6959 H   0  0  0  0  0  0  0  0  0  0  0  0
   -6.2617  -33.3922  -31.3031 H   0  0  0  0  0  0  0  0  0  0  0  0
  -11.0984  -27.5915  -37.7264 H   0  0  0  0  0  0  0  0  0  0  0  0
  -16.4658  -25.8908  -36.0164 H   0  0  0  0  0  0  0  0  0  0  0  0
   -9.3519  -29.0731  -36.8144 H   0  0  0  0  0  0  0  0  0  0  0  0
  -18.8186  -25.7073  -36.6953 H   0  0  0  0  0  0  0  0  0  0  0  0
   -9.5452  -27.0071  -33.0477 H   0  0  0  0  0  0  0  0  0  0  0  0
  -15.2871  -23.4536  -39.3599 H   0  0  0  0  0  0  0  0  0  0  0  0
  -10.8713  -24.3036  -33.8048 H   0  0  0  0  0  0  0  0  0  0  0  0
  -12.4942  -25.0190  -33.9663 H   0  0  0  0  0  0  0  0  0  0  0  0
  -11.4388  -25.5382  -32.6534 H   0  0  0  0  0  0  0  0  0  0  0  0
   -8.8855  -34.6395  -30.2074 H   0  0  0  0  0  0  0  0  0  0  0  0
   -8.3073  -33.3215  -29.1633 H   0  0  0  0  0  0  0  0  0  0  0  0
  -10.0192  -33.7983  -29.1649 H   0  0  0  0  0  0  0  0  0  0  0  0
   -9.9785  -30.5667  -31.1411 H   0  0  0  0  0  0  0  0  0  0  0  0
   -8.9294  -30.8781  -29.7694 H   0  0  0  0  0  0  0  0  0  0  0  0
  -10.6452  -31.3345  -29.6831 H   0  0  0  0  0  0  0  0  0  0  0  0
  -10.7552  -32.4447  -32.6245 H   0  0  0  0  0  0  0  0  0  0  0  0
  -10.3006  -34.1262  -32.2729 H   0  0  0  0  0  0  0  0  0  0  0  0
  -11.4817  -33.2696  -31.2562 H   0  0  0  0  0  0  0  0  0  0  0  0
   -7.4161  -29.4415  -36.1238 H   0  0  0  0  0  0  0  0  0  0  0  0
   -8.6959  -30.5565  -35.6181 H   0  0  0  0  0  0  0  0  0  0  0  0
  -13.8163  -23.9506  -37.4208 H   0  0  0  0  0  0  0  0  0  0  0  0
  -11.9694  -24.7139  -36.7670 H   0  0  0  0  0  0  0  0  0  0  0  0
  1  2  2  0  0  0  0
  1  3  1  0  0  0  0
  2  4  1  0  0  0  0
  3 12  2  0  0  0  0
  4 13  2  0  0  0  0
  5  7  1  0  0  0  0
  5 15  2  0  0  0  0
  6  8  1  0  0  0  0
  6 14  2  0  0  0  0
  7 16  2  0  0  0  0
  8 17  2  0  0  0  0
  9 11  2  0  0  0  0
  9 16  1  0  0  0  0
 10 14  1  0  0  0  0
 10 18  2  0  0  0  0
 11 15  1  0  0  0  0
 11 22  1  0  0  0  0
 12 13  1  0  0  0  0
 12 28  1  0  0  0  0
 13 29  1  0  0  0  0
 14 30  1  0  0  0  0
 15 31  1  0  0  0  0
 16 33  1  0  0  0  0
 17 18  1  0  0  0  0
 17 36  1  0  0  0  0
 18 37  1  0  0  0  0
 19 26  1  0  0  0  0
 19 28  2  0  0  0  0
 19 29  1  0  0  0  0
 20 29  1  0  0  0  0
 20 32  2  0  0  0  0
 20 34  1  0  0  0  0
 21 30  1  0  0  0  0
 21 31  1  0  0  0  0
 21 35  2  0  0  0  0
 23 27  1  0  0  0  0
 24 27  1  0  0  0  0
 25 27  1  0  0  0  0
 26 33  1  0  0  0  0
 27 34  1  0  0  0  0
  1 38  1  0  0  0  0
  2 39  1  0  0  0  0
  3 40  1  0  0  0  0
  4 41  1  0  0  0  0
  5 42  1  0  0  0  0
  6 43  1  0  0  0  0
  7 44  1  0  0  0  0
  8 45  1  0  0  0  0
  9 46  1  0  0  0  0
 10 47  1  0  0  0  0
 22 48  1  0  0  0  0
 22 49  1  0  0  0  0
 22 50  1  0  0  0  0
 23 51  1  0  0  0  0
 23 52  1  0  0  0  0
 23 53  1  0  0  0  0
 24 54  1  0  0  0  0
 24 55  1  0  0  0  0
 24 56  1  0  0  0  0
 25 57  1  0  0  0  0
 25 58  1  0  0  0  0
 25 59  1  0  0  0  0
 26 60  1  0  0  0  0
 26 61  1  0  0  0  0
 30 62  1  0  0  0  0
 31 63  1  0  0  0  0
M  END
> <Name>
EZ_15

> <SourceTag>
EZ_15

> <Activity_FLAP>
100

> <Activity_sEH>
100000

> <Gold.Version>
5.2

> <Gold.Id.Protein>
6HGV|6HGV_protein|mol2

> <Gold.PLP.Fitness>
80.1533

> <Gold.PLP.PLP>
-80.3561

> <Gold.PLP.part.hbond>
-4.5803

> <Gold.PLP.part.metal>
0.0000

> <Gold.PLP.part.buried>
9.8963

> <Gold.PLP.part.nonpolar>
-86.8555

> <Gold.PLP.part.repulsive>
0.0698

> <Gold.PLP.ligand.clash>
1.5821

> <Gold.PLP.ligand.torsion>
0.9930

> <Gold.PLP.Chemscore.Hbond>
0.5126

> <Gold.PLP.Chemscore.CHOScore>
0.0000

> <Gold.PLP.Chemscore.Metal>
0.0000

> <Gold.Chemscore.Hbonds>
donor molecule, donor type, donor heavy atom, donor atom, acceptor molecule, acceptor atom, score
      L1  H    30    62       P1   853  0.05
      P1  H  1256  3855       L1    35  0.33
      P1  H  1247  3847       L1    35  0.13

> <Gold.PLP.Chemscore.Internal.Correction>
0.6604

> <Gold.Protein.RotatedTorsions>
[ 3525  925  924  922 ] final -110.80 input   59.99 | X-H torsion
[ 3781 1176 1175 1172 ] final  161.89 input   60.00 | X-H torsion
[ 4531 1957 1955 1953 ] final  133.98 input   60.00 | X-H torsion
[ 3847 1247 1246 1244 ] final  123.37 input   60.00 | X-H torsion
[ 4507 1931 1930 1928 ] final -178.63 input   60.00 | X-H torsion
[ 3677 1070 1069 1066 ] final -156.52 input   60.00 | X-H torsion

> <Gold.Protein.ActiveResidues>
 GLY266  PHE267  PRO268  GLU269  MET310  HIS334  ASP335  TRP336  GLY337  GLY338 
 MET339  LEU340  TRP342  TYR343  LEU358  ASN359  THR360  PRO361  ILE363  ALA365 
 MET369  SER370  PRO371  LEU372  GLU373  SER374  ILE375  LYS376  ALA377  ASN378 
 VAL380  PHE381  ASP382  TYR383  GLN384  PHE387  GLN388  LEU397  SER407  LEU408 
 PHE409  ARG410  LEU417  MET419  LEU428  PHE429  PHE459  TRP465  TYR466  ASN468 
 MET469  GLU470  ASN472  TRP473  ALA476  ASP496  PHE497  VAL498  LEU499  MET503 
 HIS524  TRP525 

> <Gold.Protein.RotatedAtoms>
   -3.1572  -29.8695  -29.0345 H   0  0  0  0  0  0  0  0  0  0  0  0  # atno 3525 bound_to 925 
  -11.1365  -23.1042  -31.3409 H   0  0  0  0  0  0  0  0  0  0  0  0  # atno 3677 bound_to 1070
   -9.3764  -36.6758  -32.6327 H   0  0  0  0  0  0  0  0  0  0  0  0  # atno 3781 bound_to 1176
  -14.3108  -28.2386  -37.7874 H   0  0  0  0  0  0  0  0  0  0  0  0  # atno 3847 bound_to 1247
  -12.8851  -23.8537  -40.2013 H   0  0  0  0  0  0  0  0  0  0  0  0  # atno 4507 bound_to 1931
   -2.1559  -34.0671  -36.8494 H   0  0  0  0  0  0  0  0  0  0  0  0  # atno 4531 bound_to 1957
   -2.0738  -30.2385  -30.1913 LP  0  0  0  0  0  0  0  0  0  0  0  0  # atno 5201 bound_to 925 
   -3.5103  -29.5753  -30.5955 LP  0  0  0  0  0  0  0  0  0  0  0  0  # atno 5202 bound_to 925 
  -10.7549  -37.4428  -33.0323 LP  0  0  0  0  0  0  0  0  0  0  0  0  # atno 5205 bound_to 1176
   -9.9841  -36.5159  -34.1338 LP  0  0  0  0  0  0  0  0  0  0  0  0  # atno 5206 bound_to 1176
   -2.9922  -32.6834  -36.6641 LP  0  0  0  0  0  0  0  0  0  0  0  0  # atno 5213 bound_to 1957
   -1.3885  -32.6370  -36.9681 LP  0  0  0  0  0  0  0  0  0  0  0  0  # atno 5214 bound_to 1957
  -15.6685  -28.7553  -37.0541 LP  0  0  0  0  0  0  0  0  0  0  0  0  # atno 5227 bound_to 1247
  -15.5913  -27.2421  -37.6633 LP  0  0  0  0  0  0  0  0  0  0  0  0  # atno 5228 bound_to 1247
  -12.6264  -24.6471  -38.8043 LP  0  0  0  0  0  0  0  0  0  0  0  0  # atno 5245 bound_to 1931
  -13.6845  -25.2384  -39.8986 LP  0  0  0  0  0  0  0  0  0  0  0  0  # atno 5246 bound_to 1931
  -12.1176  -22.2418  -30.3704 LP  0  0  0  0  0  0  0  0  0  0  0  0  # atno 5265 bound_to 1070
  -12.6057  -23.6869  -30.9535 LP  0  0  0  0  0  0  0  0  0  0  0  0  # atno 5266 bound_to 1070

$$$$
EZ_15|Lisa_paper2_min|sdf|3|dock6
  -GOLD-  10202014253D 1   1.00000     0.00000

 63 66  0  0  0  0  0  0  0  0  1 V2000
   -4.1872  -33.7471  -34.1448 C   0  0  0  0  0  0  0  0  0  0  0  0
   -5.3467  -34.4960  -33.9549 C   0  0  0  0  0  0  0  0  0  0  0  0
   -4.2567  -32.4249  -34.5932 C   0  0  0  0  0  0  0  0  0  0  0  0
   -6.6108  -33.9507  -34.2054 C   0  0  0  0  0  0  0  0  0  0  0  0
  -11.4308  -27.3555  -36.3955 C   0  0  0  0  0  0  0  0  0  0  0  0
  -17.3105  -25.3487  -37.1851 C   0  0  0  0  0  0  0  0  0  0  0  0
  -10.3086  -28.1425  -36.1369 C   0  0  0  0  0  0  0  0  0  0  0  0
  -18.4454  -25.2001  -37.9822 C   0  0  0  0  0  0  0  0  0  0  0  0
  -10.0344  -27.0492  -33.9999 C   0  0  0  0  0  0  0  0  0  0  0  0
  -16.1073  -23.8150  -38.6124 C   0  0  0  0  0  0  0  0  0  0  0  0
  -11.1564  -26.2620  -34.2586 C   0  0  0  0  0  0  0  0  0  0  0  0
   -5.5191  -31.8613  -34.8501 C   0  0  0  0  0  0  0  0  0  0  0  0
   -6.6715  -32.6237  -34.6549 C   0  0  0  0  0  0  0  0  0  0  0  0
  -16.1413  -24.6563  -37.5002 C   0  0  0  0  0  0  0  0  0  0  0  0
  -11.8546  -26.4152  -35.4564 C   0  0  0  0  0  0  0  0  0  0  0  0
   -9.6104  -27.9894  -34.9392 C   0  0  0  0  0  0  0  0  0  0  0  0
  -18.4113  -24.3589  -39.0944 C   0  0  0  0  0  0  0  0  0  0  0  0
  -17.2422  -23.6663  -39.4095 C   0  0  0  0  0  0  0  0  0  0  0  0
   -7.1401  -30.5831  -35.3664 C   0  0  0  0  0  0  0  0  0  0  0  0
   -9.0889  -32.0753  -34.9677 C   0  0  0  0  0  0  0  0  0  0  0  0
  -14.0000  -25.7794  -36.6773 C   0  0  0  0  0  0  0  0  0  0  0  0
  -11.5873  -25.2629  -33.2344 C   0  0  0  0  0  0  0  0  0  0  0  0
  -11.2504  -32.8179  -33.2845 C   0  0  0  0  0  0  0  0  0  0  0  0
  -11.3675  -33.5564  -35.6826 C   0  0  0  0  0  0  0  0  0  0  0  0
  -10.6833  -35.1909  -33.9026 C   0  0  0  0  0  0  0  0  0  0  0  0
   -7.8949  -29.3881  -35.8090 C   0  0  0  0  0  0  0  0  0  0  0  0
  -10.6432  -33.7302  -34.3493 C   0  0  0  0  0  0  0  0  0  0  0  0
   -5.8305  -30.6032  -35.2903 N   0  0  0  0  0  0  0  0  0  0  0  0
   -7.7215  -31.7789  -34.9948 N   0  0  0  0  0  0  0  0  0  0  0  0
  -14.9885  -24.8071  -36.6896 N   0  0  0  0  0  0  0  0  0  0  0  0
  -12.9796  -25.6349  -35.7347 N   0  0  0  0  0  0  0  0  0  0  0  0
   -9.9252  -31.2478  -35.2903 O   0  0  0  0  0  0  0  0  0  0  0  0
   -8.5098  -28.7621  -34.6852 O   0  0  0  0  0  0  0  0  0  0  0  0
   -9.2779  -33.3519  -34.5481 O   0  0  0  0  0  0  0  0  0  0  0  0
  -14.0698  -26.9441  -37.8934 S   0  0  0  0  0  0  0  0  0  0  0  0
  -19.8489  -24.2193  -40.0441 Cl  0  0  0  0  0  0  0  0  0  0  0  0
  -17.1372  -22.6115  -40.7753 Cl  0  0  0  0  0  0  0  0  0  0  0  0
   -3.2177  -34.1944  -33.9429 H   0  0  0  0  0  0  0  0  0  0  0  0
   -5.2692  -35.5228  -33.6061 H   0  0  0  0  0  0  0  0  0  0  0  0
   -3.3490  -31.8476  -34.7394 H   0  0  0  0  0  0  0  0  0  0  0  0
   -7.4972  -34.5543  -34.0498 H   0  0  0  0  0  0  0  0  0  0  0  0
  -11.9664  -27.4829  -37.3331 H   0  0  0  0  0  0  0  0  0  0  0  0
  -17.3482  -26.0055  -36.3198 H   0  0  0  0  0  0  0  0  0  0  0  0
   -9.9837  -28.8736  -36.8723 H   0  0  0  0  0  0  0  0  0  0  0  0
  -19.3483  -25.7463  -37.7208 H   0  0  0  0  0  0  0  0  0  0  0  0
   -9.4876  -26.9319  -33.0674 H   0  0  0  0  0  0  0  0  0  0  0  0
  -15.1918  -23.2784  -38.8538 H   0  0  0  0  0  0  0  0  0  0  0  0
  -11.0971  -24.2996  -33.4151 H   0  0  0  0  0  0  0  0  0  0  0  0
  -12.6734  -25.1136  -33.2600 H   0  0  0  0  0  0  0  0  0  0  0  0
  -11.3345  -25.6003  -32.2219 H   0  0  0  0  0  0  0  0  0  0  0  0
  -10.7333  -32.9398  -32.3261 H   0  0  0  0  0  0  0  0  0  0  0  0
  -11.1962  -31.7644  -33.5774 H   0  0  0  0  0  0  0  0  0  0  0  0
  -12.3009  -33.0733  -33.1036 H   0  0  0  0  0  0  0  0  0  0  0  0
  -10.9351  -34.2091  -36.4495 H   0  0  0  0  0  0  0  0  0  0  0  0
  -11.2606  -32.5308  -36.0539 H   0  0  0  0  0  0  0  0  0  0  0  0
  -12.4348  -33.7839  -35.5951 H   0  0  0  0  0  0  0  0  0  0  0  0
  -10.2478  -35.8455  -34.6662 H   0  0  0  0  0  0  0  0  0  0  0  0
  -10.1367  -35.3413  -32.9659 H   0  0  0  0  0  0  0  0  0  0  0  0
  -11.7169  -35.5267  -33.7604 H   0  0  0  0  0  0  0  0  0  0  0  0
   -7.2418  -28.6479  -36.2999 H   0  0  0  0  0  0  0  0  0  0  0  0
   -8.6834  -29.6499  -36.5334 H   0  0  0  0  0  0  0  0  0  0  0  0
  -14.8457  -24.0546  -36.0191 H   0  0  0  0  0  0  0  0  0  0  0  0
  -13.0254  -24.7460  -35.2255 H   0  0  0  0  0  0  0  0  0  0  0  0
  1  2  2  0  0  0  0
  1  3  1  0  0  0  0
  2  4  1  0  0  0  0
  3 12  2  0  0  0  0
  4 13  2  0  0  0  0
  5  7  1  0  0  0  0
  5 15  2  0  0  0  0
  6  8  1  0  0  0  0
  6 14  2  0  0  0  0
  7 16  2  0  0  0  0
  8 17  2  0  0  0  0
  9 11  2  0  0  0  0
  9 16  1  0  0  0  0
 10 14  1  0  0  0  0
 10 18  2  0  0  0  0
 11 15  1  0  0  0  0
 11 22  1  0  0  0  0
 12 13  1  0  0  0  0
 12 28  1  0  0  0  0
 13 29  1  0  0  0  0
 14 30  1  0  0  0  0
 15 31  1  0  0  0  0
 16 33  1  0  0  0  0
 17 18  1  0  0  0  0
 17 36  1  0  0  0  0
 18 37  1  0  0  0  0
 19 26  1  0  0  0  0
 19 28  2  0  0  0  0
 19 29  1  0  0  0  0
 20 29  1  0  0  0  0
 20 32  2  0  0  0  0
 20 34  1  0  0  0  0
 21 30  1  0  0  0  0
 21 31  1  0  0  0  0
 21 35  2  0  0  0  0
 23 27  1  0  0  0  0
 24 27  1  0  0  0  0
 25 27  1  0  0  0  0
 26 33  1  0  0  0  0
 27 34  1  0  0  0  0
  1 38  1  0  0  0  0
  2 39  1  0  0  0  0
  3 40  1  0  0  0  0
  4 41  1  0  0  0  0
  5 42  1  0  0  0  0
  6 43  1  0  0  0  0
  7 44  1  0  0  0  0
  8 45  1  0  0  0  0
  9 46  1  0  0  0  0
 10 47  1  0  0  0  0
 22 48  1  0  0  0  0
 22 49  1  0  0  0  0
 22 50  1  0  0  0  0
 23 51  1  0  0  0  0
 23 52  1  0  0  0  0
 23 53  1  0  0  0  0
 24 54  1  0  0  0  0
 24 55  1  0  0  0  0
 24 56  1  0  0  0  0
 25 57  1  0  0  0  0
 25 58  1  0  0  0  0
 25 59  1  0  0  0  0
 26 60  1  0  0  0  0
 26 61  1  0  0  0  0
 30 62  1  0  0  0  0
 31 63  1  0  0  0  0
M  END
> <Name>
EZ_15

> <SourceTag>
EZ_15

> <Activity_FLAP>
100

> <Activity_sEH>
100000

> <Gold.Version>
5.2

> <Gold.Id.Protein>
6HGV|6HGV_protein|mol2

> <Gold.PLP.Fitness>
78.6027

> <Gold.PLP.PLP>
-71.1960

> <Gold.PLP.part.hbond>
-3.2344

> <Gold.PLP.part.metal>
0.0000

> <Gold.PLP.part.buried>
21.9904

> <Gold.PLP.part.nonpolar>
-90.1537

> <Gold.PLP.part.repulsive>
0.0956

> <Gold.PLP.ligand.clash>
0.5108

> <Gold.PLP.ligand.torsion>
1.4037

> <Gold.PLP.Chemscore.Hbond>
2.5930

> <Gold.PLP.Chemscore.CHOScore>
0.0000

> <Gold.PLP.Chemscore.Metal>
0.0000

> <Gold.Chemscore.Hbonds>
donor molecule, donor type, donor heavy atom, donor atom, acceptor molecule, acceptor atom, score
      L1  H    30    62       P1   853  0.91
      L1  H    31    63       P1   853  0.79
      P1  H  1256  3854       L1    32  0.22
      P1  H  1256  3855       L1    35  0.40
      P1  H  1247  3847       L1    35  0.25
      P1  H  1931  4507       L1    35  0.03

> <Gold.PLP.Chemscore.Internal.Correction>
0.6604

> <Gold.Protein.RotatedTorsions>
[ 3525  925  924  922 ] final -102.35 input   59.99 | X-H torsion
[ 3781 1176 1175 1172 ] final   78.95 input   60.00 | X-H torsion
[ 4531 1957 1955 1953 ] final  143.45 input   60.00 | X-H torsion
[ 3847 1247 1246 1244 ] final  130.85 input   60.00 | X-H torsion
[ 4507 1931 1930 1928 ] final  -42.59 input   60.00 | X-H torsion
[ 3677 1070 1069 1066 ] final   13.03 input   60.00 | X-H torsion

> <Gold.Protein.ActiveResidues>
 GLY266  PHE267  PRO268  GLU269  MET310  HIS334  ASP335  TRP336  GLY337  GLY338 
 MET339  LEU340  TRP342  TYR343  LEU358  ASN359  THR360  PRO361  ILE363  ALA365 
 MET369  SER370  PRO371  LEU372  GLU373  SER374  ILE375  LYS376  ALA377  ASN378 
 VAL380  PHE381  ASP382  TYR383  GLN384  PHE387  GLN388  LEU397  SER407  LEU408 
 PHE409  ARG410  LEU417  MET419  LEU428  PHE429  PHE459  TRP465  TYR466  ASN468 
 MET469  GLU470  ASN472  TRP473  ALA476  ASP496  PHE497  VAL498  LEU499  MET503 
 HIS524  TRP525 

> <Gold.Protein.RotatedAtoms>
   -3.2755  -29.8139  -29.0783 H   0  0  0  0  0  0  0  0  0  0  0  0  # atno 3525 bound_to 925 
  -12.8022  -23.0714  -30.5033 H   0  0  0  0  0  0  0  0  0  0  0  0  # atno 3677 bound_to 1070
  -10.3935  -37.3813  -32.5608 H   0  0  0  0  0  0  0  0  0  0  0  0  # atno 3781 bound_to 1176
  -14.3125  -28.1243  -37.8305 H   0  0  0  0  0  0  0  0  0  0  0  0  # atno 3847 bound_to 1247
  -13.6134  -25.3361  -39.6659 H   0  0  0  0  0  0  0  0  0  0  0  0  # atno 4507 bound_to 1931
   -2.0049  -34.0500  -36.8778 H   0  0  0  0  0  0  0  0  0  0  0  0  # atno 4531 bound_to 1957
   -2.0532  -30.2599  -30.0557 LP  0  0  0  0  0  0  0  0  0  0  0  0  # atno 5201 bound_to 925 
   -3.4117  -29.6099  -30.6870 LP  0  0  0  0  0  0  0  0  0  0  0  0  # atno 5202 bound_to 925 
  -10.4756  -36.8569  -34.0990 LP  0  0  0  0  0  0  0  0  0  0  0  0  # atno 5205 bound_to 1176
   -9.2390  -36.3913  -33.1395 LP  0  0  0  0  0  0  0  0  0  0  0  0  # atno 5206 bound_to 1176
   -3.0540  -32.8260  -36.6548 LP  0  0  0  0  0  0  0  0  0  0  0  0  # atno 5213 bound_to 1957
   -1.4787  -32.5117  -36.9488 LP  0  0  0  0  0  0  0  0  0  0  0  0  # atno 5214 bound_to 1957
  -15.5676  -28.8245  -37.0673 LP  0  0  0  0  0  0  0  0  0  0  0  0  # atno 5227 bound_to 1247
  -15.6905  -27.2881  -37.6068 LP  0  0  0  0  0  0  0  0  0  0  0  0  # atno 5228 bound_to 1247
  -13.0614  -23.9701  -40.3567 LP  0  0  0  0  0  0  0  0  0  0  0  0  # atno 5245 bound_to 1931
  -12.5161  -24.4225  -38.8854 LP  0  0  0  0  0  0  0  0  0  0  0  0  # atno 5246 bound_to 1931
  -11.6342  -23.7060  -31.4420 LP  0  0  0  0  0  0  0  0  0  0  0  0  # atno 5265 bound_to 1070
  -11.4117  -22.2557  -30.7254 LP  0  0  0  0  0  0  0  0  0  0  0  0  # atno 5266 bound_to 1070

$$$$
EZ_15|Lisa_paper2_min|sdf|3|dock4
  -GOLD-  10202014253D 1   1.00000     0.00000

 63 66  0  0  0  0  0  0  0  0  1 V2000
   -3.2907  -33.2214  -33.1053 C   0  0  0  0  0  0  0  0  0  0  0  0
   -4.2747  -33.7396  -32.2660 C   0  0  0  0  0  0  0  0  0  0  0  0
   -3.6016  -32.2352  -34.0460 C   0  0  0  0  0  0  0  0  0  0  0  0
   -5.5982  -33.2912  -32.3376 C   0  0  0  0  0  0  0  0  0  0  0  0
  -10.9274  -27.5899  -36.5005 C   0  0  0  0  0  0  0  0  0  0  0  0
  -16.6676  -25.2998  -37.0001 C   0  0  0  0  0  0  0  0  0  0  0  0
   -9.9415  -28.4555  -36.0267 C   0  0  0  0  0  0  0  0  0  0  0  0
  -17.9647  -25.2010  -37.5035 C   0  0  0  0  0  0  0  0  0  0  0  0
   -9.6599  -27.0644  -34.0715 C   0  0  0  0  0  0  0  0  0  0  0  0
  -15.8615  -23.9096  -38.8041 C   0  0  0  0  0  0  0  0  0  0  0  0
  -10.6457  -26.1988  -34.5454 C   0  0  0  0  0  0  0  0  0  0  0  0
   -4.9270  -31.7733  -34.1316 C   0  0  0  0  0  0  0  0  0  0  0  0
   -5.9015  -32.3017  -33.2841 C   0  0  0  0  0  0  0  0  0  0  0  0
  -15.6159  -24.6542  -37.6504 C   0  0  0  0  0  0  0  0  0  0  0  0
  -11.2793  -26.4615  -35.7598 C   0  0  0  0  0  0  0  0  0  0  0  0
   -9.3077  -28.1928  -34.8122 C   0  0  0  0  0  0  0  0  0  0  0  0
  -18.2101  -24.4565  -38.6573 C   0  0  0  0  0  0  0  0  0  0  0  0
  -17.1585  -23.8107  -39.3076 C   0  0  0  0  0  0  0  0  0  0  0  0
   -6.7309  -30.7676  -34.6436 C   0  0  0  0  0  0  0  0  0  0  0  0
   -8.3414  -31.8119  -33.0628 C   0  0  0  0  0  0  0  0  0  0  0  0
  -13.5647  -25.8498  -36.7089 C   0  0  0  0  0  0  0  0  0  0  0  0
  -11.0021  -24.9978  -33.7308 C   0  0  0  0  0  0  0  0  0  0  0  0
   -8.9793  -33.6615  -29.9733 C   0  0  0  0  0  0  0  0  0  0  0  0
   -9.0454  -31.1958  -30.4484 C   0  0  0  0  0  0  0  0  0  0  0  0
  -10.6454  -32.7383  -31.6185 C   0  0  0  0  0  0  0  0  0  0  0  0
   -7.6816  -29.8531  -35.3171 C   0  0  0  0  0  0  0  0  0  0  0  0
   -9.2413  -32.5929  -31.0336 C   0  0  0  0  0  0  0  0  0  0  0  0
   -5.4602  -30.8268  -34.9644 N   0  0  0  0  0  0  0  0  0  0  0  0
   -7.0731  -31.6375  -33.6277 N   0  0  0  0  0  0  0  0  0  0  0  0
  -14.2982  -24.7543  -37.1381 N   0  0  0  0  0  0  0  0  0  0  0  0
  -12.2677  -25.6055  -36.2522 N   0  0  0  0  0  0  0  0  0  0  0  0
   -9.3031  -31.1679  -33.4485 O   0  0  0  0  0  0  0  0  0  0  0  0
   -8.3409  -29.0424  -34.3471 O   0  0  0  0  0  0  0  0  0  0  0  0
   -8.2890  -32.7554  -32.0888 O   0  0  0  0  0  0  0  0  0  0  0  0
  -14.2732  -27.3643  -36.9207 S   0  0  0  0  0  0  0  0  0  0  0  0
  -19.8381  -24.3748  -39.2329 Cl  0  0  0  0  0  0  0  0  0  0  0  0
  -17.3990  -22.8757  -40.7417 Cl  0  0  0  0  0  0  0  0  0  0  0  0
   -2.2702  -33.5870  -33.0293 H   0  0  0  0  0  0  0  0  0  0  0  0
   -4.0107  -34.5066  -31.5420 H   0  0  0  0  0  0  0  0  0  0  0  0
   -2.8297  -31.8363  -34.6970 H   0  0  0  0  0  0  0  0  0  0  0  0
   -6.3448  -33.7106  -31.6736 H   0  0  0  0  0  0  0  0  0  0  0  0
  -11.4136  -27.8044  -37.4491 H   0  0  0  0  0  0  0  0  0  0  0  0
  -16.4874  -25.8812  -36.0995 H   0  0  0  0  0  0  0  0  0  0  0  0
   -9.6720  -29.3330  -36.6081 H   0  0  0  0  0  0  0  0  0  0  0  0
  -18.7723  -25.7095  -36.9828 H   0  0  0  0  0  0  0  0  0  0  0  0
   -9.1637  -26.8621  -33.1253 H   0  0  0  0  0  0  0  0  0  0  0  0
  -15.0368  -23.4092  -39.3078 H   0  0  0  0  0  0  0  0  0  0  0  0
  -10.3750  -24.1459  -34.0171 H   0  0  0  0  0  0  0  0  0  0  0  0
  -12.0540  -24.7218  -33.8724 H   0  0  0  0  0  0  0  0  0  0  0  0
  -10.8633  -25.1908  -32.6601 H   0  0  0  0  0  0  0  0  0  0  0  0
   -9.1189  -34.6656  -30.3894 H   0  0  0  0  0  0  0  0  0  0  0  0
   -7.9636  -33.5900  -29.5708 H   0  0  0  0  0  0  0  0  0  0  0  0
   -9.6882  -33.5699  -29.1423 H   0  0  0  0  0  0  0  0  0  0  0  0
   -9.2324  -30.4259  -31.2057 H   0  0  0  0  0  0  0  0  0  0  0  0
   -8.0115  -31.0546  -30.1132 H   0  0  0  0  0  0  0  0  0  0  0  0
   -9.7128  -31.0163  -29.5993 H   0  0  0  0  0  0  0  0  0  0  0  0
  -10.8335  -31.9719  -32.3791 H   0  0  0  0  0  0  0  0  0  0  0  0
  -10.7918  -33.7223  -32.0758 H   0  0  0  0  0  0  0  0  0  0  0  0
  -11.4071  -32.5979  -30.8431 H   0  0  0  0  0  0  0  0  0  0  0  0
   -7.1736  -29.1869  -36.0337 H   0  0  0  0  0  0  0  0  0  0  0  0
   -8.4481  -30.4074  -35.8831 H   0  0  0  0  0  0  0  0  0  0  0  0
  -13.7918  -23.8718  -37.1075 H   0  0  0  0  0  0  0  0  0  0  0  0
  -11.9667  -24.6359  -36.3959 H   0  0  0  0  0  0  0  0  0  0  0  0
  1  2  2  0  0  0  0
  1  3  1  0  0  0  0
  2  4  1  0  0  0  0
  3 12  2  0  0  0  0
  4 13  2  0  0  0  0
  5  7  1  0  0  0  0
  5 15  2  0  0  0  0
  6  8  1  0  0  0  0
  6 14  2  0  0  0  0
  7 16  2  0  0  0  0
  8 17  2  0  0  0  0
  9 11  2  0  0  0  0
  9 16  1  0  0  0  0
 10 14  1  0  0  0  0
 10 18  2  0  0  0  0
 11 15  1  0  0  0  0
 11 22  1  0  0  0  0
 12 13  1  0  0  0  0
 12 28  1  0  0  0  0
 13 29  1  0  0  0  0
 14 30  1  0  0  0  0
 15 31  1  0  0  0  0
 16 33  1  0  0  0  0
 17 18  1  0  0  0  0
 17 36  1  0  0  0  0
 18 37  1  0  0  0  0
 19 26  1  0  0  0  0
 19 28  2  0  0  0  0
 19 29  1  0  0  0  0
 20 29  1  0  0  0  0
 20 32  2  0  0  0  0
 20 34  1  0  0  0  0
 21 30  1  0  0  0  0
 21 31  1  0  0  0  0
 21 35  2  0  0  0  0
 23 27  1  0  0  0  0
 24 27  1  0  0  0  0
 25 27  1  0  0  0  0
 26 33  1  0  0  0  0
 27 34  1  0  0  0  0
  1 38  1  0  0  0  0
  2 39  1  0  0  0  0
  3 40  1  0  0  0  0
  4 41  1  0  0  0  0
  5 42  1  0  0  0  0
  6 43  1  0  0  0  0
  7 44  1  0  0  0  0
  8 45  1  0  0  0  0
  9 46  1  0  0  0  0
 10 47  1  0  0  0  0
 22 48  1  0  0  0  0
 22 49  1  0  0  0  0
 22 50  1  0  0  0  0
 23 51  1  0  0  0  0
 23 52  1  0  0  0  0
 23 53  1  0  0  0  0
 24 54  1  0  0  0  0
 24 55  1  0  0  0  0
 24 56  1  0  0  0  0
 25 57  1  0  0  0  0
 25 58  1  0  0  0  0
 25 59  1  0  0  0  0
 26 60  1  0  0  0  0
 26 61  1  0  0  0  0
 30 62  1  0  0  0  0
 31 63  1  0  0  0  0
M  END
> <Name>
EZ_15

> <SourceTag>
EZ_15

> <Activity_FLAP>
100

> <Activity_sEH>
100000

> <Gold.Version>
5.2

> <Gold.Id.Protein>
6HGV|6HGV_protein|mol2

> <Gold.PLP.Fitness>
78.1404

> <Gold.PLP.PLP>
-76.2319

> <Gold.PLP.part.hbond>
-4.6428

> <Gold.PLP.part.metal>
0.0000

> <Gold.PLP.part.buried>
15.6280

> <Gold.PLP.part.nonpolar>
-87.0729

> <Gold.PLP.part.repulsive>
0.0715

> <Gold.PLP.ligand.clash>
0.0000

> <Gold.PLP.ligand.torsion>
1.6106

> <Gold.PLP.Chemscore.Hbond>
0.8559

> <Gold.PLP.Chemscore.CHOScore>
0.0000

> <Gold.PLP.Chemscore.Metal>
0.0000

> <Gold.Chemscore.Hbonds>
donor molecule, donor type, donor heavy atom, donor atom, acceptor molecule, acceptor atom, score
      L1  H    30    62       P1   853  0.11
      P1  H  1256  3855       L1    35  0.59
      P1  H  1247  3847       L1    35  0.16

> <Gold.PLP.Chemscore.Internal.Correction>
0.6604

> <Gold.Protein.RotatedTorsions>
[ 3525  925  924  922 ] final  -12.15 input   59.99 | X-H torsion
[ 3781 1176 1175 1172 ] final  -67.37 input   60.00 | X-H torsion
[ 4531 1957 1955 1953 ] final  168.47 input   60.00 | X-H torsion
[ 3847 1247 1246 1244 ] final  139.37 input   60.00 | X-H torsion
[ 4507 1931 1930 1928 ] final  -14.54 input   60.00 | X-H torsion
[ 3677 1070 1069 1066 ] final  113.36 input   60.00 | X-H torsion

> <Gold.Protein.ActiveResidues>
 GLY266  PHE267  PRO268  GLU269  MET310  HIS334  ASP335  TRP336  GLY337  GLY338 
 MET339  LEU340  TRP342  TYR343  LEU358  ASN359  THR360  PRO361  ILE363  ALA365 
 MET369  SER370  PRO371  LEU372  GLU373  SER374  ILE375  LYS376  ALA377  ASN378 
 VAL380  PHE381  ASP382  TYR383  GLN384  PHE387  GLN388  LEU397  SER407  LEU408 
 PHE409  ARG410  LEU417  MET419  LEU428  PHE429  PHE459  TRP465  TYR466  ASN468 
 MET469  GLU470  ASN472  TRP473  ALA476  ASP496  PHE497  VAL498  LEU499  MET503 
 HIS524  TRP525 

> <Gold.Protein.RotatedAtoms>
   -3.6913  -29.5206  -30.3031 H   0  0  0  0  0  0  0  0  0  0  0  0  # atno 3525 bound_to 925 
  -11.6726  -22.1831  -30.5528 H   0  0  0  0  0  0  0  0  0  0  0  0  # atno 3677 bound_to 1070
  -10.1318  -36.6090  -34.1566 H   0  0  0  0  0  0  0  0  0  0  0  0  # atno 3781 bound_to 1176
  -14.3326  -27.9933  -37.8727 H   0  0  0  0  0  0  0  0  0  0  0  0  # atno 3847 bound_to 1247
  -13.4019  -25.3692  -39.2658 H   0  0  0  0  0  0  0  0  0  0  0  0  # atno 4507 bound_to 1931
   -1.6393  -33.8875  -36.9445 H   0  0  0  0  0  0  0  0  0  0  0  0  # atno 4531 bound_to 1957
   -2.8410  -30.0125  -29.0058 LP  0  0  0  0  0  0  0  0  0  0  0  0  # atno 5201 bound_to 925 
   -2.2052  -30.1527  -30.5034 LP  0  0  0  0  0  0  0  0  0  0  0  0  # atno 5202 bound_to 925 
   -9.3017  -36.5763  -32.7573 LP  0  0  0  0  0  0  0  0  0  0  0  0  # atno 5205 bound_to 1176
  -10.6765  -37.4497  -32.8742 LP  0  0  0  0  0  0  0  0  0  0  0  0  # atno 5206 bound_to 1176
   -3.0999  -33.2318  -36.6531 LP  0  0  0  0  0  0  0  0  0  0  0  0  # atno 5213 bound_to 1957
   -1.8010  -32.2694  -36.8834 LP  0  0  0  0  0  0  0  0  0  0  0  0  # atno 5214 bound_to 1957
  -15.4450  -28.8877  -37.0912 LP  0  0  0  0  0  0  0  0  0  0  0  0  # atno 5227 bound_to 1247
  -15.7929  -27.3567  -37.5403 LP  0  0  0  0  0  0  0  0  0  0  0  0  # atno 5228 bound_to 1247
  -13.3613  -24.2906  -40.4837 LP  0  0  0  0  0  0  0  0  0  0  0  0  # atno 5245 bound_to 1931
  -12.4292  -24.0687  -39.1613 LP  0  0  0  0  0  0  0  0  0  0  0  0  # atno 5246 bound_to 1931
  -12.8023  -23.3491  -30.6644 LP  0  0  0  0  0  0  0  0  0  0  0  0  # atno 5265 bound_to 1070
  -11.3811  -23.5070  -31.4531 LP  0  0  0  0  0  0  0  0  0  0  0  0  # atno 5266 bound_to 1070

$$$$
EZ_15|Lisa_paper2_min|sdf|3|dock8
  -GOLD-  10202014253D 1   1.00000     0.00000

 63 66  0  0  0  0  0  0  0  0  1 V2000
   -2.9987  -32.0397  -33.2454 C   0  0  0  0  0  0  0  0  0  0  0  0
   -3.8199  -33.1188  -33.5656 C   0  0  0  0  0  0  0  0  0  0  0  0
   -3.5197  -30.7450  -33.1655 C   0  0  0  0  0  0  0  0  0  0  0  0
   -5.1853  -32.9413  -33.8156 C   0  0  0  0  0  0  0  0  0  0  0  0
  -11.4535  -27.3196  -36.7085 C   0  0  0  0  0  0  0  0  0  0  0  0
  -17.3677  -25.2740  -37.1809 C   0  0  0  0  0  0  0  0  0  0  0  0
  -10.3355  -28.1248  -36.4910 C   0  0  0  0  0  0  0  0  0  0  0  0
  -18.5468  -25.1247  -37.9110 C   0  0  0  0  0  0  0  0  0  0  0  0
  -10.0065  -27.0857  -34.3348 C   0  0  0  0  0  0  0  0  0  0  0  0
  -16.2348  -23.7803  -38.7049 C   0  0  0  0  0  0  0  0  0  0  0  0
  -11.1245  -26.2804  -34.5524 C   0  0  0  0  0  0  0  0  0  0  0  0
   -4.8898  -30.5487  -33.4141 C   0  0  0  0  0  0  0  0  0  0  0  0
   -5.6997  -31.6392  -33.7333 C   0  0  0  0  0  0  0  0  0  0  0  0
  -16.2117  -24.6019  -37.5778 C   0  0  0  0  0  0  0  0  0  0  0  0
  -11.8479  -26.3973  -35.7391 C   0  0  0  0  0  0  0  0  0  0  0  0
   -9.6119  -28.0079  -35.3043 C   0  0  0  0  0  0  0  0  0  0  0  0
  -18.5699  -24.3032  -39.0381 C   0  0  0  0  0  0  0  0  0  0  0  0
  -17.4139  -23.6309  -39.4350 C   0  0  0  0  0  0  0  0  0  0  0  0
   -6.8402  -29.7452  -33.6930 C   0  0  0  0  0  0  0  0  0  0  0  0
   -8.1400  -31.7914  -34.2471 C   0  0  0  0  0  0  0  0  0  0  0  0
  -14.0502  -25.7502  -36.8476 C   0  0  0  0  0  0  0  0  0  0  0  0
  -11.5235  -25.3012  -33.4965 C   0  0  0  0  0  0  0  0  0  0  0  0
   -8.1771  -35.2323  -35.4786 C   0  0  0  0  0  0  0  0  0  0  0  0
  -10.1248  -33.8256  -34.7458 C   0  0  0  0  0  0  0  0  0  0  0  0
   -8.6747  -33.0600  -36.6482 C   0  0  0  0  0  0  0  0  0  0  0  0
   -7.9555  -28.7744  -33.7797 C   0  0  0  0  0  0  0  0  0  0  0  0
   -8.7084  -33.8088  -35.3167 C   0  0  0  0  0  0  0  0  0  0  0  0
   -5.6139  -29.3873  -33.3947 N   0  0  0  0  0  0  0  0  0  0  0  0
   -6.9690  -31.1021  -33.9125 N   0  0  0  0  0  0  0  0  0  0  0  0
  -15.0139  -24.7534  -36.8353 N   0  0  0  0  0  0  0  0  0  0  0  0
  -12.9692  -25.5984  -35.9764 N   0  0  0  0  0  0  0  0  0  0  0  0
   -9.2043  -31.2099  -34.3787 O   0  0  0  0  0  0  0  0  0  0  0  0
   -8.5154  -28.7984  -35.0907 O   0  0  0  0  0  0  0  0  0  0  0  0
   -7.8755  -33.1155  -34.3828 O   0  0  0  0  0  0  0  0  0  0  0  0
  -14.2244  -26.9561  -38.0121 S   0  0  0  0  0  0  0  0  0  0  0  0
  -20.0604  -24.1617  -39.9021 Cl  0  0  0  0  0  0  0  0  0  0  0  0
  -17.3791  -22.6010  -40.8232 Cl  0  0  0  0  0  0  0  0  0  0  0  0
   -1.9415  -32.2048  -33.0559 H   0  0  0  0  0  0  0  0  0  0  0  0
   -3.3935  -34.1172  -33.6229 H   0  0  0  0  0  0  0  0  0  0  0  0
   -2.8736  -29.9090  -32.9159 H   0  0  0  0  0  0  0  0  0  0  0  0
   -5.8024  -33.7970  -34.0627 H   0  0  0  0  0  0  0  0  0  0  0  0
  -12.0089  -27.4189  -37.6379 H   0  0  0  0  0  0  0  0  0  0  0  0
  -17.3609  -25.9154  -36.3033 H   0  0  0  0  0  0  0  0  0  0  0  0
  -10.0335  -28.8417  -37.2498 H   0  0  0  0  0  0  0  0  0  0  0  0
  -19.4385  -25.6549  -37.5862 H   0  0  0  0  0  0  0  0  0  0  0  0
   -9.4401  -26.9966  -33.4109 H   0  0  0  0  0  0  0  0  0  0  0  0
  -15.3295  -23.2595  -39.0103 H   0  0  0  0  0  0  0  0  0  0  0  0
  -11.0261  -24.3393  -33.6641 H   0  0  0  0  0  0  0  0  0  0  0  0
  -12.6082  -25.1395  -33.4967 H   0  0  0  0  0  0  0  0  0  0  0  0
  -11.2546  -25.6654  -32.4975 H   0  0  0  0  0  0  0  0  0  0  0  0
   -7.1607  -35.2246  -35.8882 H   0  0  0  0  0  0  0  0  0  0  0  0
   -8.1633  -35.7687  -34.5242 H   0  0  0  0  0  0  0  0  0  0  0  0
   -8.7912  -35.8008  -36.1864 H   0  0  0  0  0  0  0  0  0  0  0  0
  -10.5100  -32.8063  -34.6280 H   0  0  0  0  0  0  0  0  0  0  0  0
  -10.1378  -34.2778  -33.7475 H   0  0  0  0  0  0  0  0  0  0  0  0
  -10.8129  -34.3842  -35.3885 H   0  0  0  0  0  0  0  0  0  0  0  0
   -9.0558  -32.0388  -36.5323 H   0  0  0  0  0  0  0  0  0  0  0  0
   -7.6596  -33.0059  -37.0549 H   0  0  0  0  0  0  0  0  0  0  0  0
   -9.3202  -33.5489  -37.3868 H   0  0  0  0  0  0  0  0  0  0  0  0
   -8.7576  -29.0043  -33.0592 H   0  0  0  0  0  0  0  0  0  0  0  0
   -7.6182  -27.7468  -33.5665 H   0  0  0  0  0  0  0  0  0  0  0  0
  -14.8111  -23.9810  -36.2040 H   0  0  0  0  0  0  0  0  0  0  0  0
  -12.9615  -24.6908  -35.4994 H   0  0  0  0  0  0  0  0  0  0  0  0
  1  2  2  0  0  0  0
  1  3  1  0  0  0  0
  2  4  1  0  0  0  0
  3 12  2  0  0  0  0
  4 13  2  0  0  0  0
  5  7  1  0  0  0  0
  5 15  2  0  0  0  0
  6  8  1  0  0  0  0
  6 14  2  0  0  0  0
  7 16  2  0  0  0  0
  8 17  2  0  0  0  0
  9 11  2  0  0  0  0
  9 16  1  0  0  0  0
 10 14  1  0  0  0  0
 10 18  2  0  0  0  0
 11 15  1  0  0  0  0
 11 22  1  0  0  0  0
 12 13  1  0  0  0  0
 12 28  1  0  0  0  0
 13 29  1  0  0  0  0
 14 30  1  0  0  0  0
 15 31  1  0  0  0  0
 16 33  1  0  0  0  0
 17 18  1  0  0  0  0
 17 36  1  0  0  0  0
 18 37  1  0  0  0  0
 19 26  1  0  0  0  0
 19 28  2  0  0  0  0
 19 29  1  0  0  0  0
 20 29  1  0  0  0  0
 20 32  2  0  0  0  0
 20 34  1  0  0  0  0
 21 30  1  0  0  0  0
 21 31  1  0  0  0  0
 21 35  2  0  0  0  0
 23 27  1  0  0  0  0
 24 27  1  0  0  0  0
 25 27  1  0  0  0  0
 26 33  1  0  0  0  0
 27 34  1  0  0  0  0
  1 38  1  0  0  0  0
  2 39  1  0  0  0  0
  3 40  1  0  0  0  0
  4 41  1  0  0  0  0
  5 42  1  0  0  0  0
  6 43  1  0  0  0  0
  7 44  1  0  0  0  0
  8 45  1  0  0  0  0
  9 46  1  0  0  0  0
 10 47  1  0  0  0  0
 22 48  1  0  0  0  0
 22 49  1  0  0  0  0
 22 50  1  0  0  0  0
 23 51  1  0  0  0  0
 23 52  1  0  0  0  0
 23 53  1  0  0  0  0
 24 54  1  0  0  0  0
 24 55  1  0  0  0  0
 24 56  1  0  0  0  0
 25 57  1  0  0  0  0
 25 58  1  0  0  0  0
 25 59  1  0  0  0  0
 26 60  1  0  0  0  0
 26 61  1  0  0  0  0
 30 62  1  0  0  0  0
 31 63  1  0  0  0  0
M  END
> <Name>
EZ_15

> <SourceTag>
EZ_15

> <Activity_FLAP>
100

> <Activity_sEH>
100000

> <Gold.Version>
5.2

> <Gold.Id.Protein>
6HGV|6HGV_protein|mol2

> <Gold.PLP.Fitness>
75.4767

> <Gold.PLP.PLP>
-70.0736

> <Gold.PLP.part.hbond>
-3.6157

> <Gold.PLP.part.metal>
0.0000

> <Gold.PLP.part.buried>
18.2539

> <Gold.PLP.part.nonpolar>
-84.1633

> <Gold.PLP.part.repulsive>
0.0554

> <Gold.PLP.ligand.clash>
1.2939

> <Gold.PLP.ligand.torsion>
1.3301

> <Gold.PLP.Chemscore.Hbond>
2.2056

> <Gold.PLP.Chemscore.CHOScore>
0.0000

> <Gold.PLP.Chemscore.Metal>
0.0000

> <Gold.Chemscore.Hbonds>
donor molecule, donor type, donor heavy atom, donor atom, acceptor molecule, acceptor atom, score
      L1  H    30    62       P1   853  0.94
      L1  H    31    63       P1   853  0.70
      P1  H  1256  3855       L1    35  0.36
      P1  H  1247  3847       L1    35  0.19
      P1  H  1931  4507       L1    35  0.01

> <Gold.PLP.Chemscore.Internal.Correction>
0.6604

> <Gold.Protein.RotatedTorsions>
[ 3525  925  924  922 ] final  103.53 input   59.99 | X-H torsion
[ 3781 1176 1175 1172 ] final  -72.93 input   60.00 | X-H torsion
[ 4531 1957 1955 1953 ] final  109.69 input   60.00 | X-H torsion
[ 3847 1247 1246 1244 ] final  129.26 input   60.00 | X-H torsion
[ 4507 1931 1930 1928 ] final  -55.48 input   60.00 | X-H torsion
[ 3677 1070 1069 1066 ] final -145.31 input   60.00 | X-H torsion

> <Gold.Protein.ActiveResidues>
 GLY266  PHE267  PRO268  GLU269  MET310  HIS334  ASP335  TRP336  GLY337  GLY338 
 MET339  LEU340  TRP342  TYR343  LEU358  ASN359  THR360  PRO361  ILE363  ALA365 
 MET369  SER370  PRO371  LEU372  GLU373  SER374  ILE375  LYS376  ALA377  ASN378 
 VAL380  PHE381  ASP382  TYR383  GLN384  PHE387  GLN388  LEU397  SER407  LEU408 
 PHE409  ARG410  LEU417  MET419  LEU428  PHE429  PHE459  TRP465  TYR466  ASN468 
 MET469  GLU470  ASN472  TRP473  ALA476  ASP496  PHE497  VAL498  LEU499  MET503 
 HIS524  TRP525 

> <Gold.Protein.RotatedAtoms>
   -2.2482  -30.1268  -30.5537 H   0  0  0  0  0  0  0  0  0  0  0  0  # atno 3525 bound_to 925 
  -11.2065  -23.2635  -31.3973 H   0  0  0  0  0  0  0  0  0  0  0  0  # atno 3677 bound_to 1070
  -10.0549  -36.5617  -34.1459 H   0  0  0  0  0  0  0  0  0  0  0  0  # atno 3781 bound_to 1176
  -14.3109  -28.1486  -37.8218 H   0  0  0  0  0  0  0  0  0  0  0  0  # atno 3847 bound_to 1247
  -13.6693  -25.2592  -39.8534 H   0  0  0  0  0  0  0  0  0  0  0  0  # atno 4507 bound_to 1931
   -2.5362  -33.9952  -36.7758 H   0  0  0  0  0  0  0  0  0  0  0  0  # atno 4531 bound_to 1957
   -3.7231  -29.5151  -30.2398 LP  0  0  0  0  0  0  0  0  0  0  0  0  # atno 5201 bound_to 925 
   -2.7764  -30.0397  -29.0170 LP  0  0  0  0  0  0  0  0  0  0  0  0  # atno 5202 bound_to 925 
   -9.3356  -36.6250  -32.6875 LP  0  0  0  0  0  0  0  0  0  0  0  0  # atno 5205 bound_to 1176
  -10.7201  -37.4486  -32.9547 LP  0  0  0  0  0  0  0  0  0  0  0  0  # atno 5206 bound_to 1176
   -2.7381  -32.3819  -36.7072 LP  0  0  0  0  0  0  0  0  0  0  0  0  # atno 5213 bound_to 1957
   -1.2596  -33.0109  -36.9991 LP  0  0  0  0  0  0  0  0  0  0  0  0  # atno 5214 bound_to 1957
  -15.5896  -28.8108  -37.0639 LP  0  0  0  0  0  0  0  0  0  0  0  0  # atno 5227 bound_to 1247
  -15.6701  -27.2772  -37.6189 LP  0  0  0  0  0  0  0  0  0  0  0  0  # atno 5228 bound_to 1247
  -12.9194  -23.8672  -40.2381 LP  0  0  0  0  0  0  0  0  0  0  0  0  # atno 5245 bound_to 1931
  -12.6018  -24.6029  -38.8153 LP  0  0  0  0  0  0  0  0  0  0  0  0  # atno 5246 bound_to 1931
  -11.9489  -22.1910  -30.4244 LP  0  0  0  0  0  0  0  0  0  0  0  0  # atno 5265 bound_to 1070
  -12.7039  -23.5772  -30.8427 LP  0  0  0  0  0  0  0  0  0  0  0  0  # atno 5266 bound_to 1070

$$$$
EZ_15|Lisa_paper2_min|sdf|3|dock3
  -GOLD-  10202014253D 1   1.00000     0.00000

 63 66  0  0  0  0  0  0  0  0  1 V2000
   -7.3188  -34.7283  -29.4213 C   0  0  0  0  0  0  0  0  0  0  0  0
   -6.1606  -34.4123  -30.1285 C   0  0  0  0  0  0  0  0  0  0  0  0
   -8.5571  -34.2098  -29.8110 C   0  0  0  0  0  0  0  0  0  0  0  0
   -6.2004  -33.5704  -31.2455 C   0  0  0  0  0  0  0  0  0  0  0  0
  -12.7295  -28.3846  -34.6759 C   0  0  0  0  0  0  0  0  0  0  0  0
  -17.4330  -25.5959  -36.8273 C   0  0  0  0  0  0  0  0  0  0  0  0
  -11.8429  -29.3286  -34.1579 C   0  0  0  0  0  0  0  0  0  0  0  0
  -18.6153  -25.4088  -37.5433 C   0  0  0  0  0  0  0  0  0  0  0  0
  -10.1117  -27.6464  -34.0554 C   0  0  0  0  0  0  0  0  0  0  0  0
  -16.2746  -24.1273  -38.3564 C   0  0  0  0  0  0  0  0  0  0  0  0
  -10.9983  -26.7024  -34.5736 C   0  0  0  0  0  0  0  0  0  0  0  0
   -8.6151  -33.3618  -30.9312 C   0  0  0  0  0  0  0  0  0  0  0  0
   -7.4467  -33.0546  -31.6295 C   0  0  0  0  0  0  0  0  0  0  0  0
  -16.2625  -24.9553  -37.2339 C   0  0  0  0  0  0  0  0  0  0  0  0
  -12.3071  -27.0715  -34.8838 C   0  0  0  0  0  0  0  0  0  0  0  0
  -10.5340  -28.9596  -33.8476 C   0  0  0  0  0  0  0  0  0  0  0  0
  -18.6273  -24.5809  -38.6658 C   0  0  0  0  0  0  0  0  0  0  0  0
  -17.4569  -23.9401  -39.0724 C   0  0  0  0  0  0  0  0  0  0  0  0
   -9.2202  -32.0704  -32.5104 C   0  0  0  0  0  0  0  0  0  0  0  0
   -7.0501  -31.6254  -33.6401 C   0  0  0  0  0  0  0  0  0  0  0  0
  -14.3909  -26.3002  -36.1329 C   0  0  0  0  0  0  0  0  0  0  0  0
  -10.5181  -25.3034  -34.7859 C   0  0  0  0  0  0  0  0  0  0  0  0
   -4.8703  -30.6595  -35.2512 C   0  0  0  0  0  0  0  0  0  0  0  0
   -3.5924  -32.5887  -34.2742 C   0  0  0  0  0  0  0  0  0  0  0  0
   -5.6595  -33.0185  -35.6345 C   0  0  0  0  0  0  0  0  0  0  0  0
  -10.0758  -31.2495  -33.3980 C   0  0  0  0  0  0  0  0  0  0  0  0
   -4.9743  -32.0638  -34.6579 C   0  0  0  0  0  0  0  0  0  0  0  0
   -9.7000  -32.7433  -31.4916 N   0  0  0  0  0  0  0  0  0  0  0  0
   -7.8547  -32.2121  -32.6569 N   0  0  0  0  0  0  0  0  0  0  0  0
  -15.0614  -25.1452  -36.5057 N   0  0  0  0  0  0  0  0  0  0  0  0
  -13.2094  -26.1411  -35.4055 N   0  0  0  0  0  0  0  0  0  0  0  0
   -7.5229  -30.8979  -34.4976 O   0  0  0  0  0  0  0  0  0  0  0  0
   -9.6644  -29.8857  -33.3387 O   0  0  0  0  0  0  0  0  0  0  0  0
   -5.7568  -31.9960  -33.4622 O   0  0  0  0  0  0  0  0  0  0  0  0
  -15.0051  -27.7548  -36.7223 S   0  0  0  0  0  0  0  0  0  0  0  0
  -20.1227  -24.3919  -39.5123 Cl  0  0  0  0  0  0  0  0  0  0  0  0
  -17.4079  -22.9041  -40.4557 Cl  0  0  0  0  0  0  0  0  0  0  0  0
   -7.2603  -35.3846  -28.5572 H   0  0  0  0  0  0  0  0  0  0  0  0
   -5.2079  -34.8263  -29.8074 H   0  0  0  0  0  0  0  0  0  0  0  0
   -9.4553  -34.4601  -29.2549 H   0  0  0  0  0  0  0  0  0  0  0  0
   -5.2853  -33.3400  -31.7781 H   0  0  0  0  0  0  0  0  0  0  0  0
  -13.7469  -28.6842  -34.9151 H   0  0  0  0  0  0  0  0  0  0  0  0
  -17.4349  -26.2420  -35.9531 H   0  0  0  0  0  0  0  0  0  0  0  0
  -12.1780  -30.3498  -33.9977 H   0  0  0  0  0  0  0  0  0  0  0  0
  -19.5183  -25.9149  -37.2111 H   0  0  0  0  0  0  0  0  0  0  0  0
   -9.0906  -27.3620  -33.8130 H   0  0  0  0  0  0  0  0  0  0  0  0
  -15.3580  -23.6311  -38.6695 H   0  0  0  0  0  0  0  0  0  0  0  0
  -10.1010  -25.1947  -35.7935 H   0  0  0  0  0  0  0  0  0  0  0  0
  -11.3354  -24.5822  -34.6653 H   0  0  0  0  0  0  0  0  0  0  0  0
   -9.7448  -25.0356  -34.0558 H   0  0  0  0  0  0  0  0  0  0  0  0
   -5.8601  -30.2792  -35.5280 H   0  0  0  0  0  0  0  0  0  0  0  0
   -4.4122  -29.9571  -34.5473 H   0  0  0  0  0  0  0  0  0  0  0  0
   -4.2737  -30.6666  -36.1707 H   0  0  0  0  0  0  0  0  0  0  0  0
   -3.6623  -33.5961  -33.8481 H   0  0  0  0  0  0  0  0  0  0  0  0
   -3.1358  -31.9582  -33.5027 H   0  0  0  0  0  0  0  0  0  0  0  0
   -2.9194  -32.6231  -35.1370 H   0  0  0  0  0  0  0  0  0  0  0  0
   -5.7343  -34.0259  -35.2092 H   0  0  0  0  0  0  0  0  0  0  0  0
   -6.6672  -32.6767  -35.8925 H   0  0  0  0  0  0  0  0  0  0  0  0
   -5.0775  -33.1152  -36.5581 H   0  0  0  0  0  0  0  0  0  0  0  0
  -10.0165  -31.5810  -34.4477 H   0  0  0  0  0  0  0  0  0  0  0  0
  -11.1369  -31.3036  -33.1044 H   0  0  0  0  0  0  0  0  0  0  0  0
  -14.5944  -24.2824  -36.2344 H   0  0  0  0  0  0  0  0  0  0  0  0
  -12.9139  -25.1623  -35.3273 H   0  0  0  0  0  0  0  0  0  0  0  0
  1  2  2  0  0  0  0
  1  3  1  0  0  0  0
  2  4  1  0  0  0  0
  3 12  2  0  0  0  0
  4 13  2  0  0  0  0
  5  7  1  0  0  0  0
  5 15  2  0  0  0  0
  6  8  1  0  0  0  0
  6 14  2  0  0  0  0
  7 16  2  0  0  0  0
  8 17  2  0  0  0  0
  9 11  2  0  0  0  0
  9 16  1  0  0  0  0
 10 14  1  0  0  0  0
 10 18  2  0  0  0  0
 11 15  1  0  0  0  0
 11 22  1  0  0  0  0
 12 13  1  0  0  0  0
 12 28  1  0  0  0  0
 13 29  1  0  0  0  0
 14 30  1  0  0  0  0
 15 31  1  0  0  0  0
 16 33  1  0  0  0  0
 17 18  1  0  0  0  0
 17 36  1  0  0  0  0
 18 37  1  0  0  0  0
 19 26  1  0  0  0  0
 19 28  2  0  0  0  0
 19 29  1  0  0  0  0
 20 29  1  0  0  0  0
 20 32  2  0  0  0  0
 20 34  1  0  0  0  0
 21 30  1  0  0  0  0
 21 31  1  0  0  0  0
 21 35  2  0  0  0  0
 23 27  1  0  0  0  0
 24 27  1  0  0  0  0
 25 27  1  0  0  0  0
 26 33  1  0  0  0  0
 27 34  1  0  0  0  0
  1 38  1  0  0  0  0
  2 39  1  0  0  0  0
  3 40  1  0  0  0  0
  4 41  1  0  0  0  0
  5 42  1  0  0  0  0
  6 43  1  0  0  0  0
  7 44  1  0  0  0  0
  8 45  1  0  0  0  0
  9 46  1  0  0  0  0
 10 47  1  0  0  0  0
 22 48  1  0  0  0  0
 22 49  1  0  0  0  0
 22 50  1  0  0  0  0
 23 51  1  0  0  0  0
 23 52  1  0  0  0  0
 23 53  1  0  0  0  0
 24 54  1  0  0  0  0
 24 55  1  0  0  0  0
 24 56  1  0  0  0  0
 25 57  1  0  0  0  0
 25 58  1  0  0  0  0
 25 59  1  0  0  0  0
 26 60  1  0  0  0  0
 26 61  1  0  0  0  0
 30 62  1  0  0  0  0
 31 63  1  0  0  0  0
M  END
> <Name>
EZ_15

> <SourceTag>
EZ_15

> <Activity_FLAP>
100

> <Activity_sEH>
100000

> <Gold.Version>
5.2

> <Gold.Id.Protein>
6HGV|6HGV_protein|mol2

> <Gold.PLP.Fitness>
73.8443

> <Gold.PLP.PLP>
-68.9885

> <Gold.PLP.part.hbond>
-3.6852

> <Gold.PLP.part.metal>
0.0000

> <Gold.PLP.part.buried>
14.6583

> <Gold.PLP.part.nonpolar>
-79.7102

> <Gold.PLP.part.repulsive>
0.0276

> <Gold.PLP.ligand.clash>
1.1419

> <Gold.PLP.ligand.torsion>
1.1550

> <Gold.PLP.Chemscore.Hbond>
1.9438

> <Gold.PLP.Chemscore.CHOScore>
0.0000

> <Gold.PLP.Chemscore.Metal>
0.0000

> <Gold.Chemscore.Hbonds>
donor molecule, donor type, donor heavy atom, donor atom, acceptor molecule, acceptor atom, score
      L1  H    30    62       P1   853  0.99
      L1  H    31    63       P1   853  0.52
      P1  H  1256  3855       L1    35  0.42
      P1  H  1247  3847       L1    35  0.01

> <Gold.PLP.Chemscore.Internal.Correction>
0.6604

> <Gold.Protein.RotatedTorsions>
[ 3525  925  924  922 ] final -161.20 input   59.99 | X-H torsion
[ 3781 1176 1175 1172 ] final  126.65 input   60.00 | X-H torsion
[ 4531 1957 1955 1953 ] final   37.68 input   60.00 | X-H torsion
[ 3847 1247 1246 1244 ] final  -79.76 input   60.00 | X-H torsion
[ 4507 1931 1930 1928 ] final  133.13 input   60.00 | X-H torsion
[ 3677 1070 1069 1066 ] final   -1.82 input   60.00 | X-H torsion

> <Gold.Protein.ActiveResidues>
 GLY266  PHE267  PRO268  GLU269  MET310  HIS334  ASP335  TRP336  GLY337  GLY338 
 MET339  LEU340  TRP342  TYR343  LEU358  ASN359  THR360  PRO361  ILE363  ALA365 
 MET369  SER370  PRO371  LEU372  GLU373  SER374  ILE375  LYS376  ALA377  ASN378 
 VAL380  PHE381  ASP382  TYR383  GLN384  PHE387  GLN388  LEU397  SER407  LEU408 
 PHE409  ARG410  LEU417  MET419  LEU428  PHE429  PHE459  TRP465  TYR466  ASN468 
 MET469  GLU470  ASN472  TRP473  ALA476  ASP496  PHE497  VAL498  LEU499  MET503 
 HIS524  TRP525 

> <Gold.Protein.RotatedAtoms>
   -2.4344  -30.1710  -29.1836 H   0  0  0  0  0  0  0  0  0  0  0  0  # atno 3525 bound_to 925 
  -12.8064  -23.2826  -30.6215 H   0  0  0  0  0  0  0  0  0  0  0  0  # atno 3677 bound_to 1070
   -9.7522  -37.0196  -32.3843 H   0  0  0  0  0  0  0  0  0  0  0  0  # atno 3781 bound_to 1176
  -15.9786  -27.5926  -37.3799 H   0  0  0  0  0  0  0  0  0  0  0  0  # atno 3847 bound_to 1247
  -12.4923  -23.8431  -39.5447 H   0  0  0  0  0  0  0  0  0  0  0  0  # atno 4507 bound_to 1931
   -3.0956  -33.0551  -36.6532 H   0  0  0  0  0  0  0  0  0  0  0  0  # atno 4531 bound_to 1957
   -2.5346  -29.9822  -30.7968 LP  0  0  0  0  0  0  0  0  0  0  0  0  # atno 5201 bound_to 925 
   -3.7774  -29.5280  -29.8399 LP  0  0  0  0  0  0  0  0  0  0  0  0  # atno 5202 bound_to 925 
  -10.8269  -37.2870  -33.5765 LP  0  0  0  0  0  0  0  0  0  0  0  0  # atno 5205 bound_to 1176
   -9.5336  -36.3255  -33.8398 LP  0  0  0  0  0  0  0  0  0  0  0  0  # atno 5206 bound_to 1176
   -1.6493  -32.3561  -36.9137 LP  0  0  0  0  0  0  0  0  0  0  0  0  # atno 5213 bound_to 1957
   -1.7851  -33.9834  -36.9160 LP  0  0  0  0  0  0  0  0  0  0  0  0  # atno 5214 bound_to 1957
  -14.4539  -27.6827  -37.9412 LP  0  0  0  0  0  0  0  0  0  0  0  0  # atno 5227 bound_to 1247
  -15.1264  -28.9653  -37.1866 LP  0  0  0  0  0  0  0  0  0  0  0  0  # atno 5228 bound_to 1247
  -13.1172  -25.2230  -38.9504 LP  0  0  0  0  0  0  0  0  0  0  0  0  # atno 5245 bound_to 1931
  -13.5893  -24.6732  -40.4138 LP  0  0  0  0  0  0  0  0  0  0  0  0  # atno 5246 bound_to 1931
  -11.4380  -23.5621  -31.4565 LP  0  0  0  0  0  0  0  0  0  0  0  0  # atno 5265 bound_to 1070
  -11.6037  -22.1869  -30.5918 LP  0  0  0  0  0  0  0  0  0  0  0  0  # atno 5266 bound_to 1070

$$$$
EZ_15|Lisa_paper2_min|sdf|3|dock1
  -GOLD-  10202014253D 1   1.00000     0.00000

 63 66  0  0  0  0  0  0  0  0  1 V2000
   -4.2028  -33.2813  -34.5990 C   0  0  0  0  0  0  0  0  0  0  0  0
   -5.0521  -33.9904  -33.7521 C   0  0  0  0  0  0  0  0  0  0  0  0
   -4.4990  -31.9664  -34.9696 C   0  0  0  0  0  0  0  0  0  0  0  0
   -6.2220  -33.4114  -33.2482 C   0  0  0  0  0  0  0  0  0  0  0  0
  -11.7484  -27.2730  -36.6226 C   0  0  0  0  0  0  0  0  0  0  0  0
  -17.7571  -25.0484  -37.0142 C   0  0  0  0  0  0  0  0  0  0  0  0
  -10.5555  -27.9882  -36.5169 C   0  0  0  0  0  0  0  0  0  0  0  0
  -18.8663  -24.7861  -37.8182 C   0  0  0  0  0  0  0  0  0  0  0  0
  -10.1222  -26.9495  -34.3790 C   0  0  0  0  0  0  0  0  0  0  0  0
  -16.3575  -23.8007  -38.5377 C   0  0  0  0  0  0  0  0  0  0  0  0
  -11.3150  -26.2341  -34.4848 C   0  0  0  0  0  0  0  0  0  0  0  0
   -5.6710  -31.3692  -34.4724 C   0  0  0  0  0  0  0  0  0  0  0  0
   -6.5116  -32.0920  -33.6249 C   0  0  0  0  0  0  0  0  0  0  0  0
  -16.5027  -24.5558  -37.3739 C   0  0  0  0  0  0  0  0  0  0  0  0
  -12.1280  -26.3958  -35.6066 C   0  0  0  0  0  0  0  0  0  0  0  0
   -9.7424  -27.8266  -35.3951 C   0  0  0  0  0  0  0  0  0  0  0  0
  -18.7210  -24.0310  -38.9820 C   0  0  0  0  0  0  0  0  0  0  0  0
  -17.4666  -23.5383  -39.3418 C   0  0  0  0  0  0  0  0  0  0  0  0
   -7.2753  -30.0519  -34.0051 C   0  0  0  0  0  0  0  0  0  0  0  0
   -8.6602  -31.4755  -32.5089 C   0  0  0  0  0  0  0  0  0  0  0  0
  -14.2796  -25.6484  -36.7508 C   0  0  0  0  0  0  0  0  0  0  0  0
  -11.6962  -25.3017  -33.3811 C   0  0  0  0  0  0  0  0  0  0  0  0
   -8.9043  -34.3438  -30.2556 C   0  0  0  0  0  0  0  0  0  0  0  0
   -8.5753  -31.8993  -29.7804 C   0  0  0  0  0  0  0  0  0  0  0  0
  -10.6998  -32.6880  -30.8632 C   0  0  0  0  0  0  0  0  0  0  0  0
   -8.1302  -28.8428  -33.9726 C   0  0  0  0  0  0  0  0  0  0  0  0
   -9.1955  -32.9211  -30.7310 C   0  0  0  0  0  0  0  0  0  0  0  0
   -6.1611  -30.1108  -34.6951 N   0  0  0  0  0  0  0  0  0  0  0  0
   -7.5537  -31.2219  -33.3271 N   0  0  0  0  0  0  0  0  0  0  0  0
  -15.3759  -24.8221  -36.5563 N   0  0  0  0  0  0  0  0  0  0  0  0
  -13.3254  -25.6869  -35.7319 N   0  0  0  0  0  0  0  0  0  0  0  0
   -9.5180  -30.6290  -32.3193 O   0  0  0  0  0  0  0  0  0  0  0  0
   -8.5725  -28.5289  -35.2912 O   0  0  0  0  0  0  0  0  0  0  0  0
   -8.5914  -32.7375  -32.0147 O   0  0  0  0  0  0  0  0  0  0  0  0
  -14.1571  -26.4007  -38.2540 S   0  0  0  0  0  0  0  0  0  0  0  0
  -20.1325  -23.7429  -39.9375 Cl  0  0  0  0  0  0  0  0  0  0  0  0
  -17.2228  -22.5987  -40.7724 Cl  0  0  0  0  0  0  0  0  0  0  0  0
   -3.3003  -33.7543  -34.9765 H   0  0  0  0  0  0  0  0  0  0  0  0
   -4.8025  -35.0123  -33.4773 H   0  0  0  0  0  0  0  0  0  0  0  0
   -3.8328  -31.4201  -35.6302 H   0  0  0  0  0  0  0  0  0  0  0  0
   -6.8658  -33.9844  -32.5913 H   0  0  0  0  0  0  0  0  0  0  0  0
  -12.3734  -27.4063  -37.5022 H   0  0  0  0  0  0  0  0  0  0  0  0
  -17.8815  -25.6365  -36.1085 H   0  0  0  0  0  0  0  0  0  0  0  0
  -10.2655  -28.6703  -37.3115 H   0  0  0  0  0  0  0  0  0  0  0  0
  -19.8365  -25.1767  -37.5216 H   0  0  0  0  0  0  0  0  0  0  0  0
   -9.4860  -26.8253  -33.5060 H   0  0  0  0  0  0  0  0  0  0  0  0
  -15.3761  -23.4201  -38.8138 H   0  0  0  0  0  0  0  0  0  0  0  0
  -11.2928  -24.3012  -33.5740 H   0  0  0  0  0  0  0  0  0  0  0  0
  -12.7861  -25.2274  -33.2848 H   0  0  0  0  0  0  0  0  0  0  0  0
  -11.3130  -25.6539  -32.4157 H   0  0  0  0  0  0  0  0  0  0  0  0
   -9.3478  -35.0801  -30.9352 H   0  0  0  0  0  0  0  0  0  0  0  0
   -7.8282  -34.5349  -30.1900 H   0  0  0  0  0  0  0  0  0  0  0  0
   -9.3488  -34.5255  -29.2702 H   0  0  0  0  0  0  0  0  0  0  0  0
   -8.7818  -30.8771  -30.1176 H   0  0  0  0  0  0  0  0  0  0  0  0
   -7.4844  -32.0016  -29.7551 H   0  0  0  0  0  0  0  0  0  0  0  0
   -8.9578  -32.0119  -28.7607 H   0  0  0  0  0  0  0  0  0  0  0  0
  -10.9090  -31.6676  -31.2043 H   0  0  0  0  0  0  0  0  0  0  0  0
  -11.1559  -33.3889  -31.5700 H   0  0  0  0  0  0  0  0  0  0  0  0
  -11.1980  -32.7980  -29.8932 H   0  0  0  0  0  0  0  0  0  0  0  0
   -9.0194  -28.9850  -33.3367 H   0  0  0  0  0  0  0  0  0  0  0  0
   -7.5869  -27.9707  -33.5733 H   0  0  0  0  0  0  0  0  0  0  0  0
  -15.3532  -24.2919  -35.6876 H   0  0  0  0  0  0  0  0  0  0  0  0
  -13.4991  -24.9985  -34.9920 H   0  0  0  0  0  0  0  0  0  0  0  0
  1  2  2  0  0  0  0
  1  3  1  0  0  0  0
  2  4  1  0  0  0  0
  3 12  2  0  0  0  0
  4 13  2  0  0  0  0
  5  7  1  0  0  0  0
  5 15  2  0  0  0  0
  6  8  1  0  0  0  0
  6 14  2  0  0  0  0
  7 16  2  0  0  0  0
  8 17  2  0  0  0  0
  9 11  2  0  0  0  0
  9 16  1  0  0  0  0
 10 14  1  0  0  0  0
 10 18  2  0  0  0  0
 11 15  1  0  0  0  0
 11 22  1  0  0  0  0
 12 13  1  0  0  0  0
 12 28  1  0  0  0  0
 13 29  1  0  0  0  0
 14 30  1  0  0  0  0
 15 31  1  0  0  0  0
 16 33  1  0  0  0  0
 17 18  1  0  0  0  0
 17 36  1  0  0  0  0
 18 37  1  0  0  0  0
 19 26  1  0  0  0  0
 19 28  2  0  0  0  0
 19 29  1  0  0  0  0
 20 29  1  0  0  0  0
 20 32  2  0  0  0  0
 20 34  1  0  0  0  0
 21 30  1  0  0  0  0
 21 31  1  0  0  0  0
 21 35  2  0  0  0  0
 23 27  1  0  0  0  0
 24 27  1  0  0  0  0
 25 27  1  0  0  0  0
 26 33  1  0  0  0  0
 27 34  1  0  0  0  0
  1 38  1  0  0  0  0
  2 39  1  0  0  0  0
  3 40  1  0  0  0  0
  4 41  1  0  0  0  0
  5 42  1  0  0  0  0
  6 43  1  0  0  0  0
  7 44  1  0  0  0  0
  8 45  1  0  0  0  0
  9 46  1  0  0  0  0
 10 47  1  0  0  0  0
 22 48  1  0  0  0  0
 22 49  1  0  0  0  0
 22 50  1  0  0  0  0
 23 51  1  0  0  0  0
 23 52  1  0  0  0  0
 23 53  1  0  0  0  0
 24 54  1  0  0  0  0
 24 55  1  0  0  0  0
 24 56  1  0  0  0  0
 25 57  1  0  0  0  0
 25 58  1  0  0  0  0
 25 59  1  0  0  0  0
 26 60  1  0  0  0  0
 26 61  1  0  0  0  0
 30 62  1  0  0  0  0
 31 63  1  0  0  0  0
M  END
> <Name>
EZ_15

> <SourceTag>
EZ_15

> <Activity_FLAP>
100

> <Activity_sEH>
100000

> <Gold.Version>
5.2

> <Gold.Id.Protein>
6HGV|6HGV_protein|mol2

> <Gold.PLP.Fitness>
72.4334

> <Gold.PLP.PLP>
-65.0535

> <Gold.PLP.part.hbond>
-4.0000

> <Gold.PLP.part.metal>
0.0000

> <Gold.PLP.part.buried>
21.6656

> <Gold.PLP.part.nonpolar>
-84.0743

> <Gold.PLP.part.repulsive>
0.0329

> <Gold.PLP.ligand.clash>
0.0000

> <Gold.PLP.ligand.torsion>
1.5931

> <Gold.PLP.Chemscore.Hbond>
2.3878

> <Gold.PLP.Chemscore.CHOScore>
0.0000

> <Gold.PLP.Chemscore.Metal>
0.0000

> <Gold.Chemscore.Hbonds>
donor molecule, donor type, donor heavy atom, donor atom, acceptor molecule, acceptor atom, score
      L1  H    30    62       P1   853  0.66
      L1  H    31    63       P1   853  0.68
      P1  H  1247  3847       L1    35  0.21
      P1  H  1931  4507       L1    35  0.83

> <Gold.PLP.Chemscore.Internal.Correction>
0.9978

> <Gold.Protein.RotatedTorsions>
[ 3525  925  924  922 ] final   29.98 input   59.99 | X-H torsion
[ 3781 1176 1175 1172 ] final   25.18 input   60.00 | X-H torsion
[ 4531 1957 1955 1953 ] final   78.84 input   60.00 | X-H torsion
[ 3847 1247 1246 1244 ] final  145.79 input   60.00 | X-H torsion
[ 4507 1931 1930 1928 ] final  -30.54 input   60.00 | X-H torsion
[ 3677 1070 1069 1066 ] final  -49.61 input   60.00 | X-H torsion

> <Gold.Protein.ActiveResidues>
 GLY266  PHE267  PRO268  GLU269  MET310  HIS334  ASP335  TRP336  GLY337  GLY338 
 MET339  LEU340  TRP342  TYR343  LEU358  ASN359  THR360  PRO361  ILE363  ALA365 
 MET369  SER370  PRO371  LEU372  GLU373  SER374  ILE375  LYS376  ALA377  ASN378 
 VAL380  PHE381  ASP382  TYR383  GLN384  PHE387  GLN388  LEU397  SER407  LEU408 
 PHE409  ARG410  LEU417  MET419  LEU428  PHE429  PHE459  TRP465  TYR466  ASN468 
 MET469  GLU470  ASN472  TRP473  ALA476  ASP496  PHE497  VAL498  LEU499  MET503 
 HIS524  TRP525 

> <Gold.Protein.RotatedAtoms>
   -3.2459  -29.6707  -30.7848 H   0  0  0  0  0  0  0  0  0  0  0  0  # atno 3525 bound_to 925 
  -12.4553  -23.7778  -31.0762 H   0  0  0  0  0  0  0  0  0  0  0  0  # atno 3677 bound_to 1070
  -10.8192  -37.3912  -33.2926 H   0  0  0  0  0  0  0  0  0  0  0  0  # atno 3781 bound_to 1176
  -14.3603  -27.8957  -37.8992 H   0  0  0  0  0  0  0  0  0  0  0  0  # atno 3847 bound_to 1247
  -13.5360  -25.3736  -39.4892 H   0  0  0  0  0  0  0  0  0  0  0  0  # atno 4507 bound_to 1931
   -2.9203  -33.6881  -36.6975 H   0  0  0  0  0  0  0  0  0  0  0  0  # atno 4531 bound_to 1957
   -3.4380  -29.7372  -29.1702 LP  0  0  0  0  0  0  0  0  0  0  0  0  # atno 5201 bound_to 925 
   -2.0567  -30.2768  -29.8539 LP  0  0  0  0  0  0  0  0  0  0  0  0  # atno 5202 bound_to 925 
   -9.7569  -36.4033  -34.0299 LP  0  0  0  0  0  0  0  0  0  0  0  0  # atno 5205 bound_to 1176
   -9.5291  -36.8350  -32.4716 LP  0  0  0  0  0  0  0  0  0  0  0  0  # atno 5206 bound_to 1176
   -2.2805  -32.1947  -36.7909 LP  0  0  0  0  0  0  0  0  0  0  0  0  # atno 5213 bound_to 1957
   -1.3305  -33.5073  -36.9942 LP  0  0  0  0  0  0  0  0  0  0  0  0  # atno 5214 bound_to 1957
  -15.3487  -28.9236  -37.1153 LP  0  0  0  0  0  0  0  0  0  0  0  0  # atno 5227 bound_to 1247
  -15.8613  -27.4191  -37.4896 LP  0  0  0  0  0  0  0  0  0  0  0  0  # atno 5228 bound_to 1247
  -13.1944  -24.0941  -40.4348 LP  0  0  0  0  0  0  0  0  0  0  0  0  # atno 5245 bound_to 1931
  -12.4610  -24.2608  -38.9853 LP  0  0  0  0  0  0  0  0  0  0  0  0  # atno 5246 bound_to 1931
  -11.0892  -22.9124  -31.2579 LP  0  0  0  0  0  0  0  0  0  0  0  0  # atno 5265 bound_to 1070
  -12.3060  -22.3380  -30.3326 LP  0  0  0  0  0  0  0  0  0  0  0  0  # atno 5266 bound_to 1070

$$$$
EZ_15|Lisa_paper2_min|sdf|3|dock9
  -GOLD-  10202014253D 1   1.00000     0.00000

 63 66  0  0  0  0  0  0  0  0  1 V2000
   -3.8167  -31.8560  -35.1917 C   0  0  0  0  0  0  0  0  0  0  0  0
   -4.0928  -32.7061  -34.1228 C   0  0  0  0  0  0  0  0  0  0  0  0
   -4.7283  -30.8663  -35.5706 C   0  0  0  0  0  0  0  0  0  0  0  0
   -5.2850  -32.5962  -33.3985 C   0  0  0  0  0  0  0  0  0  0  0  0
  -11.4501  -25.4788  -35.2428 C   0  0  0  0  0  0  0  0  0  0  0  0
  -16.7394  -23.7500  -38.5338 C   0  0  0  0  0  0  0  0  0  0  0  0
  -10.2437  -26.1438  -35.0241 C   0  0  0  0  0  0  0  0  0  0  0  0
  -17.8030  -23.5335  -39.4099 C   0  0  0  0  0  0  0  0  0  0  0  0
  -11.4255  -28.2476  -34.9018 C   0  0  0  0  0  0  0  0  0  0  0  0
  -18.1954  -25.0147  -37.0786 C   0  0  0  0  0  0  0  0  0  0  0  0
  -12.6320  -27.5825  -35.1203 C   0  0  0  0  0  0  0  0  0  0  0  0
   -5.9315  -30.7420  -34.8536 C   0  0  0  0  0  0  0  0  0  0  0  0
   -6.1939  -31.6006  -33.7852 C   0  0  0  0  0  0  0  0  0  0  0  0
  -16.9355  -24.4905  -37.3681 C   0  0  0  0  0  0  0  0  0  0  0  0
  -12.6443  -26.1982  -35.2908 C   0  0  0  0  0  0  0  0  0  0  0  0
  -10.2313  -27.5282  -34.8536 C   0  0  0  0  0  0  0  0  0  0  0  0
  -19.0628  -24.0576  -39.1203 C   0  0  0  0  0  0  0  0  0  0  0  0
  -19.2590  -24.7982  -37.9547 C   0  0  0  0  0  0  0  0  0  0  0  0
   -7.8395  -30.1604  -34.1127 C   0  0  0  0  0  0  0  0  0  0  0  0
   -8.1500  -31.7665  -32.2399 C   0  0  0  0  0  0  0  0  0  0  0  0
  -14.7366  -25.5249  -36.5816 C   0  0  0  0  0  0  0  0  0  0  0  0
  -13.8955  -28.3789  -35.1667 C   0  0  0  0  0  0  0  0  0  0  0  0
   -6.6583  -34.0378  -29.7963 C   0  0  0  0  0  0  0  0  0  0  0  0
   -7.4236  -31.6543  -29.5893 C   0  0  0  0  0  0  0  0  0  0  0  0
   -9.0919  -33.4648  -30.0858 C   0  0  0  0  0  0  0  0  0  0  0  0
   -9.1210  -29.4330  -33.9623 C   0  0  0  0  0  0  0  0  0  0  0  0
   -7.6542  -32.9904  -30.2922 C   0  0  0  0  0  0  0  0  0  0  0  0
   -6.9613  -29.8597  -35.0396 N   0  0  0  0  0  0  0  0  0  0  0  0
   -7.4406  -31.2108  -33.3105 N   0  0  0  0  0  0  0  0  0  0  0  0
  -15.8544  -24.7108  -36.4785 N   0  0  0  0  0  0  0  0  0  0  0  0
  -13.8426  -25.5138  -35.5087 N   0  0  0  0  0  0  0  0  0  0  0  0
   -9.2443  -31.3384  -31.9119 O   0  0  0  0  0  0  0  0  0  0  0  0
   -9.0475  -28.1807  -34.6397 O   0  0  0  0  0  0  0  0  0  0  0  0
   -7.4390  -32.7839  -31.6914 O   0  0  0  0  0  0  0  0  0  0  0  0
  -14.5161  -26.3244  -38.0487 S   0  0  0  0  0  0  0  0  0  0  0  0
  -20.3407  -23.7521  -40.2436 Cl  0  0  0  0  0  0  0  0  0  0  0  0
  -20.7966  -25.4713  -37.5400 Cl  0  0  0  0  0  0  0  0  0  0  0  0
   -2.8833  -31.9626  -35.7378 H   0  0  0  0  0  0  0  0  0  0  0  0
   -3.3698  -33.4694  -33.8457 H   0  0  0  0  0  0  0  0  0  0  0  0
   -4.5066  -30.2077  -36.4048 H   0  0  0  0  0  0  0  0  0  0  0  0
   -5.4757  -33.2697  -32.5714 H   0  0  0  0  0  0  0  0  0  0  0  0
  -11.4475  -24.3994  -35.3731 H   0  0  0  0  0  0  0  0  0  0  0  0
  -15.7614  -23.3385  -38.7697 H   0  0  0  0  0  0  0  0  0  0  0  0
   -9.3167  -25.5779  -34.9882 H   0  0  0  0  0  0  0  0  0  0  0  0
  -17.6315  -22.9552  -40.3144 H   0  0  0  0  0  0  0  0  0  0  0  0
  -11.4126  -29.3266  -34.7681 H   0  0  0  0  0  0  0  0  0  0  0  0
  -18.3426  -25.5905  -36.1670 H   0  0  0  0  0  0  0  0  0  0  0  0
  -14.3314  -28.4568  -34.1643 H   0  0  0  0  0  0  0  0  0  0  0  0
  -14.6316  -27.9142  -35.8337 H   0  0  0  0  0  0  0  0  0  0  0  0
  -13.7116  -29.3905  -35.5485 H   0  0  0  0  0  0  0  0  0  0  0  0
   -6.8206  -34.9982  -30.2984 H   0  0  0  0  0  0  0  0  0  0  0  0
   -5.6236  -33.7248  -29.9704 H   0  0  0  0  0  0  0  0  0  0  0  0
   -6.7879  -34.2238  -28.7239 H   0  0  0  0  0  0  0  0  0  0  0  0
   -8.1360  -30.8998  -29.9420 H   0  0  0  0  0  0  0  0  0  0  0  0
   -6.4243  -31.2634  -29.8123 H   0  0  0  0  0  0  0  0  0  0  0  0
   -7.5254  -31.7463  -28.5031 H   0  0  0  0  0  0  0  0  0  0  0  0
   -9.8065  -32.7137  -30.4414 H   0  0  0  0  0  0  0  0  0  0  0  0
   -9.2863  -34.4041  -30.6139 H   0  0  0  0  0  0  0  0  0  0  0  0
   -9.3041  -33.6137  -29.0209 H   0  0  0  0  0  0  0  0  0  0  0  0
   -9.9678  -30.0011  -34.3812 H   0  0  0  0  0  0  0  0  0  0  0  0
   -9.3575  -29.2399  -32.9031 H   0  0  0  0  0  0  0  0  0  0  0  0
  -15.8899  -24.1519  -35.6285 H   0  0  0  0  0  0  0  0  0  0  0  0
  -14.0690  -24.8043  -34.8038 H   0  0  0  0  0  0  0  0  0  0  0  0
  1  2  2  0  0  0  0
  1  3  1  0  0  0  0
  2  4  1  0  0  0  0
  3 12  2  0  0  0  0
  4 13  2  0  0  0  0
  5  7  1  0  0  0  0
  5 15  2  0  0  0  0
  6  8  1  0  0  0  0
  6 14  2  0  0  0  0
  7 16  2  0  0  0  0
  8 17  2  0  0  0  0
  9 11  2  0  0  0  0
  9 16  1  0  0  0  0
 10 14  1  0  0  0  0
 10 18  2  0  0  0  0
 11 15  1  0  0  0  0
 11 22  1  0  0  0  0
 12 13  1  0  0  0  0
 12 28  1  0  0  0  0
 13 29  1  0  0  0  0
 14 30  1  0  0  0  0
 15 31  1  0  0  0  0
 16 33  1  0  0  0  0
 17 18  1  0  0  0  0
 17 36  1  0  0  0  0
 18 37  1  0  0  0  0
 19 26  1  0  0  0  0
 19 28  2  0  0  0  0
 19 29  1  0  0  0  0
 20 29  1  0  0  0  0
 20 32  2  0  0  0  0
 20 34  1  0  0  0  0
 21 30  1  0  0  0  0
 21 31  1  0  0  0  0
 21 35  2  0  0  0  0
 23 27  1  0  0  0  0
 24 27  1  0  0  0  0
 25 27  1  0  0  0  0
 26 33  1  0  0  0  0
 27 34  1  0  0  0  0
  1 38  1  0  0  0  0
  2 39  1  0  0  0  0
  3 40  1  0  0  0  0
  4 41  1  0  0  0  0
  5 42  1  0  0  0  0
  6 43  1  0  0  0  0
  7 44  1  0  0  0  0
  8 45  1  0  0  0  0
  9 46  1  0  0  0  0
 10 47  1  0  0  0  0
 22 48  1  0  0  0  0
 22 49  1  0  0  0  0
 22 50  1  0  0  0  0
 23 51  1  0  0  0  0
 23 52  1  0  0  0  0
 23 53  1  0  0  0  0
 24 54  1  0  0  0  0
 24 55  1  0  0  0  0
 24 56  1  0  0  0  0
 25 57  1  0  0  0  0
 25 58  1  0  0  0  0
 25 59  1  0  0  0  0
 26 60  1  0  0  0  0
 26 61  1  0  0  0  0
 30 62  1  0  0  0  0
 31 63  1  0  0  0  0
M  END
> <Name>
EZ_15

> <SourceTag>
EZ_15

> <Activity_FLAP>
100

> <Activity_sEH>
100000

> <Gold.Version>
5.2

> <Gold.Id.Protein>
6HGV|6HGV_protein|mol2

> <Gold.PLP.Fitness>
66.5536

> <Gold.PLP.PLP>
-60.3738

> <Gold.PLP.part.hbond>
-3.7973

> <Gold.PLP.part.metal>
0.0000

> <Gold.PLP.part.buried>
24.5082

> <Gold.PLP.part.nonpolar>
-80.9954

> <Gold.PLP.part.repulsive>
0.0329

> <Gold.PLP.ligand.clash>
0.0000

> <Gold.PLP.ligand.torsion>
2.3710

> <Gold.PLP.Chemscore.Hbond>
2.3624

> <Gold.PLP.Chemscore.CHOScore>
0.0000

> <Gold.PLP.Chemscore.Metal>
0.0000

> <Gold.Chemscore.Hbonds>
donor molecule, donor type, donor heavy atom, donor atom, acceptor molecule, acceptor atom, score
      L1  H    30    62       P1   853  0.45
      L1  H    31    63       P1   853  0.61
      P1  H  1247  3847       L1    35  0.37
      P1  H  1931  4507       L1    35  0.93

> <Gold.PLP.Chemscore.Internal.Correction>
0.6604

> <Gold.Protein.RotatedTorsions>
[ 3525  925  924  922 ] final -136.57 input   59.99 | X-H torsion
[ 3781 1176 1175 1172 ] final  -93.58 input   60.00 | X-H torsion
[ 4531 1957 1955 1953 ] final  -40.05 input   60.00 | X-H torsion
[ 3847 1247 1246 1244 ] final  149.87 input   60.00 | X-H torsion
[ 4507 1931 1930 1928 ] final  -30.16 input   60.00 | X-H torsion
[ 3677 1070 1069 1066 ] final   -4.11 input   60.00 | X-H torsion

> <Gold.Protein.ActiveResidues>
 GLY266  PHE267  PRO268  GLU269  MET310  HIS334  ASP335  TRP336  GLY337  GLY338 
 MET339  LEU340  TRP342  TYR343  LEU358  ASN359  THR360  PRO361  ILE363  ALA365 
 MET369  SER370  PRO371  LEU372  GLU373  SER374  ILE375  LYS376  ALA377  ASN378 
 VAL380  PHE381  ASP382  TYR383  GLN384  PHE387  GLN388  LEU397  SER407  LEU408 
 PHE409  ARG410  LEU417  MET419  LEU428  PHE429  PHE459  TRP465  TYR466  ASN468 
 MET469  GLU470  ASN472  TRP473  ALA476  ASP496  PHE497  VAL498  LEU499  MET503 
 HIS524  TRP525 

> <Gold.Protein.RotatedAtoms>
   -2.7748  -30.0372  -29.0236 H   0  0  0  0  0  0  0  0  0  0  0  0  # atno 3525 bound_to 925 
  -12.8020  -23.3138  -30.6415 H   0  0  0  0  0  0  0  0  0  0  0  0  # atno 3677 bound_to 1070
   -9.7738  -36.4156  -34.0353 H   0  0  0  0  0  0  0  0  0  0  0  0  # atno 3781 bound_to 1176
  -14.3833  -27.8348  -37.9134 H   0  0  0  0  0  0  0  0  0  0  0  0  # atno 3847 bound_to 1247
  -13.5333  -25.3742  -39.4837 H   0  0  0  0  0  0  0  0  0  0  0  0  # atno 4507 bound_to 1931
   -2.2979  -32.2034  -36.7902 H   0  0  0  0  0  0  0  0  0  0  0  0  # atno 4531 bound_to 1957
   -2.2455  -30.1300  -30.5596 LP  0  0  0  0  0  0  0  0  0  0  0  0  # atno 5201 bound_to 925 
   -3.7237  -29.5150  -30.2381 LP  0  0  0  0  0  0  0  0  0  0  0  0  # atno 5202 bound_to 925 
   -9.5158  -36.8226  -32.4810 LP  0  0  0  0  0  0  0  0  0  0  0  0  # atno 5205 bound_to 1176
  -10.8230  -37.3982  -33.2726 LP  0  0  0  0  0  0  0  0  0  0  0  0  # atno 5206 bound_to 1176
   -1.3234  -33.4905  -36.9953 LP  0  0  0  0  0  0  0  0  0  0  0  0  # atno 5213 bound_to 1957
   -2.9142  -33.7066  -36.6966 LP  0  0  0  0  0  0  0  0  0  0  0  0  # atno 5214 bound_to 1957
  -15.2863  -28.9410  -37.1331 LP  0  0  0  0  0  0  0  0  0  0  0  0  # atno 5227 bound_to 1247
  -15.9005  -27.4631  -37.4574 LP  0  0  0  0  0  0  0  0  0  0  0  0  # atno 5228 bound_to 1247
  -13.1985  -24.0984  -40.4367 LP  0  0  0  0  0  0  0  0  0  0  0  0  # atno 5245 bound_to 1931
  -12.4597  -24.2559  -38.9890 LP  0  0  0  0  0  0  0  0  0  0  0  0  # atno 5246 bound_to 1931
  -11.4105  -23.5365  -31.4554 LP  0  0  0  0  0  0  0  0  0  0  0  0  # atno 5265 bound_to 1070
  -11.6356  -22.1811  -30.5728 LP  0  0  0  0  0  0  0  0  0  0  0  0  # atno 5266 bound_to 1070

$$$$
EZ_17|Lisa_paper2_min|sdf|4|dock10
  -GOLD-  10202014283D 1   1.00000     0.00000

 48 51  0  0  0  0  0  0  0  0  1 V2000
  -19.0847  -23.7554  -39.6855 C   0  0  0  0  0  0  0  0  0  0  0  0
  -18.1429  -22.9159  -40.2848 C   0  0  0  0  0  0  0  0  0  0  0  0
  -18.7191  -24.6294  -38.6539 C   0  0  0  0  0  0  0  0  0  0  0  0
  -16.8049  -22.9181  -39.8769 C   0  0  0  0  0  0  0  0  0  0  0  0
  -10.3886  -28.0410  -36.3627 C   0  0  0  0  0  0  0  0  0  0  0  0
   -5.1588  -30.4781  -34.5590 C   0  0  0  0  0  0  0  0  0  0  0  0
  -11.5731  -27.6809  -37.0051 C   0  0  0  0  0  0  0  0  0  0  0  0
   -4.2789  -31.5246  -34.2835 C   0  0  0  0  0  0  0  0  0  0  0  0
  -11.8339  -25.8233  -35.4824 C   0  0  0  0  0  0  0  0  0  0  0  0
   -5.9750  -30.5661  -32.2867 C   0  0  0  0  0  0  0  0  0  0  0  0
  -10.6494  -26.1835  -34.8400 C   0  0  0  0  0  0  0  0  0  0  0  0
  -17.3790  -24.6449  -38.2316 C   0  0  0  0  0  0  0  0  0  0  0  0
  -16.4636  -23.7965  -38.8481 C   0  0  0  0  0  0  0  0  0  0  0  0
   -6.0069  -29.9987  -33.5606 C   0  0  0  0  0  0  0  0  0  0  0  0
   -9.9267  -27.2924  -35.2802 C   0  0  0  0  0  0  0  0  0  0  0  0
  -12.2959  -26.5719  -36.5650 C   0  0  0  0  0  0  0  0  0  0  0  0
   -4.2470  -32.0921  -33.0096 C   0  0  0  0  0  0  0  0  0  0  0  0
   -5.0952  -31.6127  -32.0112 C   0  0  0  0  0  0  0  0  0  0  0  0
  -15.5094  -25.0193  -37.2704 C   0  0  0  0  0  0  0  0  0  0  0  0
   -8.0868  -28.9017  -34.5578 C   0  0  0  0  0  0  0  0  0  0  0  0
  -10.1790  -25.3631  -33.6830 C   0  0  0  0  0  0  0  0  0  0  0  0
  -14.4254  -25.5250  -36.4077 C   0  0  0  0  0  0  0  0  0  0  0  0
  -16.7681  -25.3966  -37.2543 N   0  0  0  0  0  0  0  0  0  0  0  0
  -15.2763  -24.0572  -38.2133 N   0  0  0  0  0  0  0  0  0  0  0  0
   -6.9004  -28.9348  -33.8408 N   0  0  0  0  0  0  0  0  0  0  0  0
   -8.7391  -27.6702  -34.6487 N   0  0  0  0  0  0  0  0  0  0  0  0
  -13.4570  -26.2185  -37.1952 O   0  0  0  0  0  0  0  0  0  0  0  0
   -8.6746  -30.3795  -35.1157 S   0  0  0  0  0  0  0  0  0  0  0  0
   -3.1371  -33.3878  -32.7316 Cl  0  0  0  0  0  0  0  0  0  0  0  0
   -5.1038  -32.2759  -30.4146 Cl  0  0  0  0  0  0  0  0  0  0  0  0
  -20.1174  -23.7305  -40.0241 H   0  0  0  0  0  0  0  0  0  0  0  0
  -18.4548  -22.2486  -41.0845 H   0  0  0  0  0  0  0  0  0  0  0  0
  -19.4589  -25.2769  -38.1943 H   0  0  0  0  0  0  0  0  0  0  0  0
  -16.0729  -22.2664  -40.3402 H   0  0  0  0  0  0  0  0  0  0  0  0
   -9.8343  -28.9080  -36.7141 H   0  0  0  0  0  0  0  0  0  0  0  0
   -5.1745  -30.0420  -35.5546 H   0  0  0  0  0  0  0  0  0  0  0  0
  -11.9275  -28.2678  -37.8481 H   0  0  0  0  0  0  0  0  0  0  0  0
   -3.6241  -31.8844  -35.0733 H   0  0  0  0  0  0  0  0  0  0  0  0
  -12.3999  -24.9597  -35.1414 H   0  0  0  0  0  0  0  0  0  0  0  0
   -6.6400  -30.1888  -31.5124 H   0  0  0  0  0  0  0  0  0  0  0  0
  -10.5911  -25.7566  -32.7469 H   0  0  0  0  0  0  0  0  0  0  0  0
   -9.0845  -25.3682  -33.6135 H   0  0  0  0  0  0  0  0  0  0  0  0
  -10.4879  -24.3160  -33.7890 H   0  0  0  0  0  0  0  0  0  0  0  0
  -13.9059  -24.7117  -35.8700 H   0  0  0  0  0  0  0  0  0  0  0  0
  -14.8012  -26.2219  -35.6374 H   0  0  0  0  0  0  0  0  0  0  0  0
  -14.3883  -23.6144  -38.4095 H   0  0  0  0  0  0  0  0  0  0  0  0
   -6.6409  -28.0464  -33.4171 H   0  0  0  0  0  0  0  0  0  0  0  0
   -8.3090  -26.9434  -34.0672 H   0  0  0  0  0  0  0  0  0  0  0  0
  1  2  2  0  0  0  0
  1  3  1  0  0  0  0
  2  4  1  0  0  0  0
  3 12  2  0  0  0  0
  4 13  2  0  0  0  0
  5  7  1  0  0  0  0
  5 15  2  0  0  0  0
  6  8  1  0  0  0  0
  6 14  2  0  0  0  0
  7 16  2  0  0  0  0
  8 17  2  0  0  0  0
  9 11  2  0  0  0  0
  9 16  1  0  0  0  0
 10 14  1  0  0  0  0
 10 18  2  0  0  0  0
 11 15  1  0  0  0  0
 11 21  1  0  0  0  0
 12 13  1  0  0  0  0
 12 23  1  0  0  0  0
 13 24  1  0  0  0  0
 14 25  1  0  0  0  0
 15 26  1  0  0  0  0
 16 27  1  0  0  0  0
 17 18  1  0  0  0  0
 17 29  1  0  0  0  0
 18 30  1  0  0  0  0
 19 22  1  0  0  0  0
 19 23  2  0  0  0  0
 19 24  1  0  0  0  0
 20 25  1  0  0  0  0
 20 26  1  0  0  0  0
 20 28  2  0  0  0  0
 22 27  1  0  0  0  0
  1 31  1  0  0  0  0
  2 32  1  0  0  0  0
  3 33  1  0  0  0  0
  4 34  1  0  0  0  0
  5 35  1  0  0  0  0
  6 36  1  0  0  0  0
  7 37  1  0  0  0  0
  8 38  1  0  0  0  0
  9 39  1  0  0  0  0
 10 40  1  0  0  0  0
 21 41  1  0  0  0  0
 21 42  1  0  0  0  0
 21 43  1  0  0  0  0
 22 44  1  0  0  0  0
 22 45  1  0  0  0  0
 24 46  1  0  0  0  0
 25 47  1  0  0  0  0
 26 48  1  0  0  0  0
M  END
> <Name>
EZ_17

> <SourceTag>
EZ_17

> <Activity_sEH>
223.4

> <Activity_FLAP>
0.6

> <Gold.Version>
5.2

> <Gold.Id.Protein>
6HGV|6HGV_protein|mol2

> <Gold.PLP.Fitness>
80.4410

> <Gold.PLP.PLP>
-77.5093

> <Gold.PLP.part.hbond>
-7.6270

> <Gold.PLP.part.metal>
0.0000

> <Gold.PLP.part.buried>
11.1038

> <Gold.PLP.part.nonpolar>
-82.3076

> <Gold.PLP.part.repulsive>
0.1017

> <Gold.PLP.ligand.clash>
0.0000

> <Gold.PLP.ligand.torsion>
1.2510

> <Gold.PLP.Chemscore.Hbond>
1.0609

> <Gold.PLP.Chemscore.CHOScore>
0.0000

> <Gold.PLP.Chemscore.Metal>
0.0000

> <Gold.Chemscore.Hbonds>
donor molecule, donor type, donor heavy atom, donor atom, acceptor molecule, acceptor atom, score
      P1  H  1247  3847       L1    27  0.36
      P1  H  1931  4507       L1    27  0.70

> <Gold.PLP.Chemscore.Internal.Correction>
0.6394

> <Gold.Protein.RotatedTorsions>
[ 3525  925  924  922 ] final   62.90 input   59.99 | X-H torsion
[ 3781 1176 1175 1172 ] final  -48.97 input   60.00 | X-H torsion
[ 4531 1957 1955 1953 ] final -129.20 input   60.00 | X-H torsion
[ 3847 1247 1246 1244 ] final  156.19 input   60.00 | X-H torsion
[ 4507 1931 1930 1928 ] final    1.36 input   60.00 | X-H torsion
[ 3677 1070 1069 1066 ] final  -72.83 input   60.00 | X-H torsion

> <Gold.Protein.ActiveResidues>
 GLY266  PHE267  PRO268  GLU269  MET310  HIS334  ASP335  TRP336  GLY337  GLY338 
 MET339  LEU340  TRP342  TYR343  LEU358  ASN359  THR360  PRO361  ILE363  ALA365 
 MET369  SER370  PRO371  LEU372  GLU373  SER374  ILE375  LYS376  ALA377  ASN378 
 VAL380  PHE381  ASP382  TYR383  GLN384  PHE387  GLN388  LEU397  SER407  LEU408 
 PHE409  ARG410  LEU417  MET419  LEU428  PHE429  PHE459  TRP465  TYR466  ASN468 
 MET469  GLU470  ASN472  TRP473  ALA476  ASP496  PHE497  VAL498  LEU499  MET503 
 HIS524  TRP525 

> <Gold.Protein.RotatedAtoms>
   -2.7622  -29.8746  -30.8618 H   0  0  0  0  0  0  0  0  0  0  0  0  # atno 3525 bound_to 925 
  -12.1393  -23.8456  -31.2701 H   0  0  0  0  0  0  0  0  0  0  0  0  # atno 3677 bound_to 1070
  -10.3756  -36.7808  -34.1322 H   0  0  0  0  0  0  0  0  0  0  0  0  # atno 3781 bound_to 1176
  -14.4270  -27.7430  -37.9314 H   0  0  0  0  0  0  0  0  0  0  0  0  # atno 3847 bound_to 1247
  -13.2426  -25.3041  -39.0724 H   0  0  0  0  0  0  0  0  0  0  0  0  # atno 4507 bound_to 1931
   -1.2688  -32.9937  -36.9995 H   0  0  0  0  0  0  0  0  0  0  0  0  # atno 4531 bound_to 1957
   -3.7282  -29.5725  -29.5876 LP  0  0  0  0  0  0  0  0  0  0  0  0  # atno 5201 bound_to 925 
   -2.2538  -30.2362  -29.3589 LP  0  0  0  0  0  0  0  0  0  0  0  0  # atno 5202 bound_to 925 
   -9.2404  -36.4378  -33.0178 LP  0  0  0  0  0  0  0  0  0  0  0  0  # atno 5205 bound_to 1176
  -10.4923  -37.4152  -32.6382 LP  0  0  0  0  0  0  0  0  0  0  0  0  # atno 5206 bound_to 1176
   -2.5216  -34.0082  -36.7764 LP  0  0  0  0  0  0  0  0  0  0  0  0  # atno 5213 bound_to 1957
   -2.7523  -32.3932  -36.7046 LP  0  0  0  0  0  0  0  0  0  0  0  0  # atno 5214 bound_to 1957
  -15.1889  -28.9592  -37.1644 LP  0  0  0  0  0  0  0  0  0  0  0  0  # atno 5227 bound_to 1247
  -15.9540  -27.5373  -37.4080 LP  0  0  0  0  0  0  0  0  0  0  0  0  # atno 5228 bound_to 1247
  -13.5045  -24.5079  -40.4672 LP  0  0  0  0  0  0  0  0  0  0  0  0  # atno 5245 bound_to 1931
  -12.4465  -23.9170  -39.3726 LP  0  0  0  0  0  0  0  0  0  0  0  0  # atno 5246 bound_to 1931
  -11.1241  -22.5916  -31.0581 LP  0  0  0  0  0  0  0  0  0  0  0  0  # atno 5265 bound_to 1070
  -12.5893  -22.5905  -30.3371 LP  0  0  0  0  0  0  0  0  0  0  0  0  # atno 5266 bound_to 1070

$$$$
EZ_17|Lisa_paper2_min|sdf|4|dock4
  -GOLD-  10202014263D 1   1.00000     0.00000

 48 51  0  0  0  0  0  0  0  0  1 V2000
  -19.7192  -24.4404  -38.8528 C   0  0  0  0  0  0  0  0  0  0  0  0
  -18.9762  -23.3884  -39.3932 C   0  0  0  0  0  0  0  0  0  0  0  0
  -19.1419  -25.3422  -37.9499 C   0  0  0  0  0  0  0  0  0  0  0  0
  -17.6329  -23.1985  -39.0526 C   0  0  0  0  0  0  0  0  0  0  0  0
  -10.4167  -27.8926  -36.4434 C   0  0  0  0  0  0  0  0  0  0  0  0
   -5.1959  -30.5377  -34.7030 C   0  0  0  0  0  0  0  0  0  0  0  0
  -11.6431  -27.5298  -36.9999 C   0  0  0  0  0  0  0  0  0  0  0  0
   -4.3368  -31.5983  -34.4156 C   0  0  0  0  0  0  0  0  0  0  0  0
  -11.9758  -25.9280  -35.2222 C   0  0  0  0  0  0  0  0  0  0  0  0
   -5.9630  -30.5383  -32.4120 C   0  0  0  0  0  0  0  0  0  0  0  0
  -10.7494  -26.2909  -34.6656 C   0  0  0  0  0  0  0  0  0  0  0  0
  -17.7933  -25.1665  -37.5967 C   0  0  0  0  0  0  0  0  0  0  0  0
  -17.0789  -24.1085  -38.1518 C   0  0  0  0  0  0  0  0  0  0  0  0
   -6.0090  -30.0076  -33.7012 C   0  0  0  0  0  0  0  0  0  0  0  0
   -9.9698  -27.2732  -35.2763 C   0  0  0  0  0  0  0  0  0  0  0  0
  -12.4228  -26.5475  -36.3894 C   0  0  0  0  0  0  0  0  0  0  0  0
   -4.2908  -32.1291  -33.1264 C   0  0  0  0  0  0  0  0  0  0  0  0
   -5.1040  -31.5990  -32.1246 C   0  0  0  0  0  0  0  0  0  0  0  0
  -15.8268  -25.3066  -36.7764 C   0  0  0  0  0  0  0  0  0  0  0  0
   -8.1338  -28.9017  -34.5875 C   0  0  0  0  0  0  0  0  0  0  0  0
  -10.2963  -25.6105  -33.4147 C   0  0  0  0  0  0  0  0  0  0  0  0
  -14.6171  -25.7032  -36.0319 C   0  0  0  0  0  0  0  0  0  0  0  0
  -16.9992  -25.8995  -36.7449 N   0  0  0  0  0  0  0  0  0  0  0  0
  -15.8245  -24.2226  -37.6095 N   0  0  0  0  0  0  0  0  0  0  0  0
   -6.8812  -28.9294  -33.9935 N   0  0  0  0  0  0  0  0  0  0  0  0
   -8.7395  -27.6517  -34.7331 N   0  0  0  0  0  0  0  0  0  0  0  0
  -13.6250  -26.1914  -36.9354 O   0  0  0  0  0  0  0  0  0  0  0  0
   -8.8387  -30.3925  -34.9357 S   0  0  0  0  0  0  0  0  0  0  0  0
   -3.2082  -33.4446  -32.8340 Cl  0  0  0  0  0  0  0  0  0  0  0  0
   -5.0937  -32.2148  -30.5092 Cl  0  0  0  0  0  0  0  0  0  0  0  0
  -20.7616  -24.5617  -39.1365 H   0  0  0  0  0  0  0  0  0  0  0  0
  -19.4501  -22.7043  -40.0930 H   0  0  0  0  0  0  0  0  0  0  0  0
  -19.7284  -26.1557  -37.5350 H   0  0  0  0  0  0  0  0  0  0  0  0
  -17.0551  -22.3819  -39.4703 H   0  0  0  0  0  0  0  0  0  0  0  0
   -9.8181  -28.6604  -36.9278 H   0  0  0  0  0  0  0  0  0  0  0  0
   -5.2228  -30.1305  -35.7105 H   0  0  0  0  0  0  0  0  0  0  0  0
  -11.9855  -28.0158  -37.9095 H   0  0  0  0  0  0  0  0  0  0  0  0
   -3.7092  -31.9979  -35.2083 H   0  0  0  0  0  0  0  0  0  0  0  0
  -12.5862  -25.1629  -34.7483 H   0  0  0  0  0  0  0  0  0  0  0  0
   -6.6007  -30.1214  -31.6350 H   0  0  0  0  0  0  0  0  0  0  0  0
  -10.6502  -26.1598  -32.5349 H   0  0  0  0  0  0  0  0  0  0  0  0
   -9.2022  -25.5484  -33.3722 H   0  0  0  0  0  0  0  0  0  0  0  0
  -10.6773  -24.5832  -33.3630 H   0  0  0  0  0  0  0  0  0  0  0  0
  -14.1779  -24.8599  -35.4693 H   0  0  0  0  0  0  0  0  0  0  0  0
  -14.8277  -26.4981  -35.2943 H   0  0  0  0  0  0  0  0  0  0  0  0
  -15.0398  -23.6117  -37.7942 H   0  0  0  0  0  0  0  0  0  0  0  0
   -6.5415  -28.0200  -33.6873 H   0  0  0  0  0  0  0  0  0  0  0  0
   -8.2205  -26.8972  -34.2719 H   0  0  0  0  0  0  0  0  0  0  0  0
  1  2  2  0  0  0  0
  1  3  1  0  0  0  0
  2  4  1  0  0  0  0
  3 12  2  0  0  0  0
  4 13  2  0  0  0  0
  5  7  1  0  0  0  0
  5 15  2  0  0  0  0
  6  8  1  0  0  0  0
  6 14  2  0  0  0  0
  7 16  2  0  0  0  0
  8 17  2  0  0  0  0
  9 11  2  0  0  0  0
  9 16  1  0  0  0  0
 10 14  1  0  0  0  0
 10 18  2  0  0  0  0
 11 15  1  0  0  0  0
 11 21  1  0  0  0  0
 12 13  1  0  0  0  0
 12 23  1  0  0  0  0
 13 24  1  0  0  0  0
 14 25  1  0  0  0  0
 15 26  1  0  0  0  0
 16 27  1  0  0  0  0
 17 18  1  0  0  0  0
 17 29  1  0  0  0  0
 18 30  1  0  0  0  0
 19 22  1  0  0  0  0
 19 23  2  0  0  0  0
 19 24  1  0  0  0  0
 20 25  1  0  0  0  0
 20 26  1  0  0  0  0
 20 28  2  0  0  0  0
 22 27  1  0  0  0  0
  1 31  1  0  0  0  0
  2 32  1  0  0  0  0
  3 33  1  0  0  0  0
  4 34  1  0  0  0  0
  5 35  1  0  0  0  0
  6 36  1  0  0  0  0
  7 37  1  0  0  0  0
  8 38  1  0  0  0  0
  9 39  1  0  0  0  0
 10 40  1  0  0  0  0
 21 41  1  0  0  0  0
 21 42  1  0  0  0  0
 21 43  1  0  0  0  0
 22 44  1  0  0  0  0
 22 45  1  0  0  0  0
 24 46  1  0  0  0  0
 25 47  1  0  0  0  0
 26 48  1  0  0  0  0
M  END
> <Name>
EZ_17

> <SourceTag>
EZ_17

> <Activity_sEH>
223.4

> <Activity_FLAP>
0.6

> <Gold.Version>
5.2

> <Gold.Id.Protein>
6HGV|6HGV_protein|mol2

> <Gold.PLP.Fitness>
79.9243

> <Gold.PLP.PLP>
-77.5885

> <Gold.PLP.part.hbond>
-6.1278

> <Gold.PLP.part.metal>
0.0000

> <Gold.PLP.part.buried>
9.3646

> <Gold.PLP.part.nonpolar>
-80.8969

> <Gold.PLP.part.repulsive>
0.1086

> <Gold.PLP.ligand.clash>
0.0000

> <Gold.PLP.ligand.torsion>
1.4924

> <Gold.PLP.Chemscore.Hbond>
0.9548

> <Gold.PLP.Chemscore.CHOScore>
0.0000

> <Gold.PLP.Chemscore.Metal>
0.0000

> <Gold.Chemscore.Hbonds>
donor molecule, donor type, donor heavy atom, donor atom, acceptor molecule, acceptor atom, score
      L1  H    24    46       P1   853  0.06
      P1  H  1247  3847       L1    27  0.38
      P1  H  1931  4507       L1    27  0.52

> <Gold.PLP.Chemscore.Internal.Correction>
0.6394

> <Gold.Protein.RotatedTorsions>
[ 3525  925  924  922 ] final -159.88 input   59.99 | X-H torsion
[ 3781 1176 1175 1172 ] final   29.05 input   60.00 | X-H torsion
[ 4531 1957 1955 1953 ] final  146.71 input   60.00 | X-H torsion
[ 3847 1247 1246 1244 ] final  160.36 input   60.00 | X-H torsion
[ 4507 1931 1930 1928 ] final   -2.24 input   60.00 | X-H torsion
[ 3677 1070 1069 1066 ] final -159.23 input   60.00 | X-H torsion

> <Gold.Protein.ActiveResidues>
 GLY266  PHE267  PRO268  GLU269  MET310  HIS334  ASP335  TRP336  GLY337  GLY338 
 MET339  LEU340  TRP342  TYR343  LEU358  ASN359  THR360  PRO361  ILE363  ALA365 
 MET369  SER370  PRO371  LEU372  GLU373  SER374  ILE375  LYS376  ALA377  ASN378 
 VAL380  PHE381  ASP382  TYR383  GLN384  PHE387  GLN388  LEU397  SER407  LEU408 
 PHE409  ARG410  LEU417  MET419  LEU428  PHE429  PHE459  TRP465  TYR466  ASN468 
 MET469  GLU470  ASN472  TRP473  ALA476  ASP496  PHE497  VAL498  LEU499  MET503 
 HIS524  TRP525 

> <Gold.Protein.RotatedAtoms>
   -2.4508  -30.1650  -29.1712 H   0  0  0  0  0  0  0  0  0  0  0  0  # atno 3525 bound_to 925 
  -11.1242  -23.0649  -31.3246 H   0  0  0  0  0  0  0  0  0  0  0  0  # atno 3677 bound_to 1070
  -10.8086  -37.4067  -33.2323 H   0  0  0  0  0  0  0  0  0  0  0  0  # atno 3781 bound_to 1176
  -14.4609  -27.6846  -37.9404 H   0  0  0  0  0  0  0  0  0  0  0  0  # atno 3847 bound_to 1247
  -13.2803  -25.3239  -39.1129 H   0  0  0  0  0  0  0  0  0  0  0  0  # atno 4507 bound_to 1931
   -1.9537  -34.0382  -36.8873 H   0  0  0  0  0  0  0  0  0  0  0  0  # atno 4531 bound_to 1957
   -2.5169  -29.9908  -30.7878 LP  0  0  0  0  0  0  0  0  0  0  0  0  # atno 5201 bound_to 925 
   -3.7786  -29.5255  -29.8613 LP  0  0  0  0  0  0  0  0  0  0  0  0  # atno 5202 bound_to 925 
   -9.8081  -36.4261  -34.0601 LP  0  0  0  0  0  0  0  0  0  0  0  0  # atno 5205 bound_to 1176
   -9.4886  -36.7965  -32.5021 LP  0  0  0  0  0  0  0  0  0  0  0  0  # atno 5206 bound_to 1176
   -3.0698  -32.8773  -36.6527 LP  0  0  0  0  0  0  0  0  0  0  0  0  # atno 5213 bound_to 1957
   -1.5144  -32.4722  -36.9413 LP  0  0  0  0  0  0  0  0  0  0  0  0  # atno 5214 bound_to 1957
  -15.1245  -28.9654  -37.1873 LP  0  0  0  0  0  0  0  0  0  0  0  0  # atno 5227 bound_to 1247
  -15.9842  -27.5899  -37.3760 LP  0  0  0  0  0  0  0  0  0  0  0  0  # atno 5228 bound_to 1247
  -13.4746  -24.4576  -40.4766 LP  0  0  0  0  0  0  0  0  0  0  0  0  # atno 5245 bound_to 1931
  -12.4383  -23.9473  -39.3224 LP  0  0  0  0  0  0  0  0  0  0  0  0  # atno 5246 bound_to 1931
  -12.1576  -22.2585  -30.3603 LP  0  0  0  0  0  0  0  0  0  0  0  0  # atno 5265 bound_to 1070
  -12.5780  -23.7097  -30.9800 LP  0  0  0  0  0  0  0  0  0  0  0  0  # atno 5266 bound_to 1070

$$$$
EZ_17|Lisa_paper2_min|sdf|4|dock3
  -GOLD-  10202014263D 1   1.00000     0.00000

 48 51  0  0  0  0  0  0  0  0  1 V2000
  -19.7294  -24.5679  -38.7954 C   0  0  0  0  0  0  0  0  0  0  0  0
  -19.0448  -23.4773  -39.3366 C   0  0  0  0  0  0  0  0  0  0  0  0
  -19.0979  -25.4476  -37.9072 C   0  0  0  0  0  0  0  0  0  0  0  0
  -17.7078  -23.2256  -39.0114 C   0  0  0  0  0  0  0  0  0  0  0  0
  -10.4312  -27.9679  -36.4305 C   0  0  0  0  0  0  0  0  0  0  0  0
   -5.2267  -30.0503  -32.5731 C   0  0  0  0  0  0  0  0  0  0  0  0
  -11.6576  -27.5910  -36.9776 C   0  0  0  0  0  0  0  0  0  0  0  0
   -4.3901  -31.1240  -32.2682 C   0  0  0  0  0  0  0  0  0  0  0  0
  -11.8773  -25.8683  -35.2980 C   0  0  0  0  0  0  0  0  0  0  0  0
   -5.9562  -31.1873  -34.5761 C   0  0  0  0  0  0  0  0  0  0  0  0
  -10.6509  -26.2454  -34.7508 C   0  0  0  0  0  0  0  0  0  0  0  0
  -17.7548  -25.2099  -37.5695 C   0  0  0  0  0  0  0  0  0  0  0  0
  -17.0992  -24.1147  -38.1250 C   0  0  0  0  0  0  0  0  0  0  0  0
   -6.0098  -30.0819  -33.7269 C   0  0  0  0  0  0  0  0  0  0  0  0
   -9.9279  -27.2952  -35.3172 C   0  0  0  0  0  0  0  0  0  0  0  0
  -12.3807  -26.5411  -36.4114 C   0  0  0  0  0  0  0  0  0  0  0  0
   -4.3365  -32.2294  -33.1174 C   0  0  0  0  0  0  0  0  0  0  0  0
   -5.1196  -32.2610  -34.2713 C   0  0  0  0  0  0  0  0  0  0  0  0
  -15.7734  -25.2614  -36.7750 C   0  0  0  0  0  0  0  0  0  0  0  0
   -8.1211  -28.9489  -34.6113 C   0  0  0  0  0  0  0  0  0  0  0  0
  -10.1366  -25.5068  -33.5580 C   0  0  0  0  0  0  0  0  0  0  0  0
  -14.5366  -25.6048  -36.0489 C   0  0  0  0  0  0  0  0  0  0  0  0
  -16.9155  -25.9101  -36.7336 N   0  0  0  0  0  0  0  0  0  0  0  0
  -15.8339  -24.1723  -37.5993 N   0  0  0  0  0  0  0  0  0  0  0  0
   -6.8602  -28.9910  -34.0359 N   0  0  0  0  0  0  0  0  0  0  0  0
   -8.6986  -27.6888  -34.7825 N   0  0  0  0  0  0  0  0  0  0  0  0
  -13.5829  -26.1712  -36.9482 O   0  0  0  0  0  0  0  0  0  0  0  0
   -8.8674  -30.4308  -34.9068 S   0  0  0  0  0  0  0  0  0  0  0  0
   -3.2782  -33.5265  -32.6866 Cl  0  0  0  0  0  0  0  0  0  0  0  0
   -5.0952  -33.6010  -35.3634 Cl  0  0  0  0  0  0  0  0  0  0  0  0
  -20.7684  -24.7371  -39.0670 H   0  0  0  0  0  0  0  0  0  0  0  0
  -19.5599  -22.8117  -40.0249 H   0  0  0  0  0  0  0  0  0  0  0  0
  -19.6392  -26.2914  -37.4916 H   0  0  0  0  0  0  0  0  0  0  0  0
  -17.1753  -22.3791  -39.4296 H   0  0  0  0  0  0  0  0  0  0  0  0
   -9.8770  -28.7885  -36.8799 H   0  0  0  0  0  0  0  0  0  0  0  0
   -5.2621  -29.1945  -31.9038 H   0  0  0  0  0  0  0  0  0  0  0  0
  -12.0442  -28.1187  -37.8453 H   0  0  0  0  0  0  0  0  0  0  0  0
   -3.7880  -31.0829  -31.3639 H   0  0  0  0  0  0  0  0  0  0  0  0
  -12.4436  -25.0506  -34.8586 H   0  0  0  0  0  0  0  0  0  0  0  0
   -6.5684  -31.2056  -35.4755 H   0  0  0  0  0  0  0  0  0  0  0  0
  -10.4869  -25.9848  -32.6362 H   0  0  0  0  0  0  0  0  0  0  0  0
   -9.0401  -25.4869  -33.5475 H   0  0  0  0  0  0  0  0  0  0  0  0
  -10.4754  -24.4636  -33.5623 H   0  0  0  0  0  0  0  0  0  0  0  0
  -14.0723  -24.7219  -35.5742 H   0  0  0  0  0  0  0  0  0  0  0  0
  -14.7206  -26.3361  -35.2417 H   0  0  0  0  0  0  0  0  0  0  0  0
  -15.0819  -23.5229  -37.7889 H   0  0  0  0  0  0  0  0  0  0  0  0
   -6.4937  -28.0822  -33.7605 H   0  0  0  0  0  0  0  0  0  0  0  0
   -8.1541  -26.9348  -34.3506 H   0  0  0  0  0  0  0  0  0  0  0  0
  1  2  2  0  0  0  0
  1  3  1  0  0  0  0
  2  4  1  0  0  0  0
  3 12  2  0  0  0  0
  4 13  2  0  0  0  0
  5  7  1  0  0  0  0
  5 15  2  0  0  0  0
  6  8  1  0  0  0  0
  6 14  2  0  0  0  0
  7 16  2  0  0  0  0
  8 17  2  0  0  0  0
  9 11  2  0  0  0  0
  9 16  1  0  0  0  0
 10 14  1  0  0  0  0
 10 18  2  0  0  0  0
 11 15  1  0  0  0  0
 11 21  1  0  0  0  0
 12 13  1  0  0  0  0
 12 23  1  0  0  0  0
 13 24  1  0  0  0  0
 14 25  1  0  0  0  0
 15 26  1  0  0  0  0
 16 27  1  0  0  0  0
 17 18  1  0  0  0  0
 17 29  1  0  0  0  0
 18 30  1  0  0  0  0
 19 22  1  0  0  0  0
 19 23  2  0  0  0  0
 19 24  1  0  0  0  0
 20 25  1  0  0  0  0
 20 26  1  0  0  0  0
 20 28  2  0  0  0  0
 22 27  1  0  0  0  0
  1 31  1  0  0  0  0
  2 32  1  0  0  0  0
  3 33  1  0  0  0  0
  4 34  1  0  0  0  0
  5 35  1  0  0  0  0
  6 36  1  0  0  0  0
  7 37  1  0  0  0  0
  8 38  1  0  0  0  0
  9 39  1  0  0  0  0
 10 40  1  0  0  0  0
 21 41  1  0  0  0  0
 21 42  1  0  0  0  0
 21 43  1  0  0  0  0
 22 44  1  0  0  0  0
 22 45  1  0  0  0  0
 24 46  1  0  0  0  0
 25 47  1  0  0  0  0
 26 48  1  0  0  0  0
M  END
> <Name>
EZ_17

> <SourceTag>
EZ_17

> <Activity_sEH>
223.4

> <Activity_FLAP>
0.6

> <Gold.Version>
5.2

> <Gold.Id.Protein>
6HGV|6HGV_protein|mol2

> <Gold.PLP.Fitness>
79.6440

> <Gold.PLP.PLP>
-76.6651

> <Gold.PLP.part.hbond>
-6.4665

> <Gold.PLP.part.metal>
0.0000

> <Gold.PLP.part.buried>
11.6233

> <Gold.PLP.part.nonpolar>
-81.7354

> <Gold.PLP.part.repulsive>
0.1120

> <Gold.PLP.ligand.clash>
0.0000

> <Gold.PLP.ligand.torsion>
1.1095

> <Gold.PLP.Chemscore.Hbond>
1.0327

> <Gold.PLP.Chemscore.CHOScore>
0.0000

> <Gold.PLP.Chemscore.Metal>
0.0000

> <Gold.Chemscore.Hbonds>
donor molecule, donor type, donor heavy atom, donor atom, acceptor molecule, acceptor atom, score
      L1  H    24    46       P1   853  0.05
      P1  H  1247  3847       L1    27  0.45
      P1  H  1931  4507       L1    27  0.53

> <Gold.PLP.Chemscore.Internal.Correction>
0.6394

> <Gold.Protein.RotatedTorsions>
[ 3525  925  924  922 ] final  -73.82 input   59.99 | X-H torsion
[ 3781 1176 1175 1172 ] final  116.80 input   60.00 | X-H torsion
[ 4531 1957 1955 1953 ] final   27.45 input   60.00 | X-H torsion
[ 3847 1247 1246 1244 ] final  160.12 input   60.00 | X-H torsion
[ 4507 1931 1930 1928 ] final    3.34 input   60.00 | X-H torsion
[ 3677 1070 1069 1066 ] final -166.29 input   60.00 | X-H torsion

> <Gold.Protein.ActiveResidues>
 GLY266  PHE267  PRO268  GLU269  MET310  HIS334  ASP335  TRP336  GLY337  GLY338 
 MET339  LEU340  TRP342  TYR343  LEU358  ASN359  THR360  PRO361  ILE363  ALA365 
 MET369  SER370  PRO371  LEU372  GLU373  SER374  ILE375  LYS376  ALA377  ASN378 
 VAL380  PHE381  ASP382  TYR383  GLN384  PHE387  GLN388  LEU397  SER407  LEU408 
 PHE409  ARG410  LEU417  MET419  LEU428  PHE429  PHE459  TRP465  TYR466  ASN468 
 MET469  GLU470  ASN472  TRP473  ALA476  ASP496  PHE497  VAL498  LEU499  MET503 
 HIS524  TRP525 

> <Gold.Protein.RotatedAtoms>
   -3.6035  -29.6456  -29.3556 H   0  0  0  0  0  0  0  0  0  0  0  0  # atno 3525 bound_to 925 
  -11.1008  -22.9622  -31.2776 H   0  0  0  0  0  0  0  0  0  0  0  0  # atno 3677 bound_to 1070
   -9.8834  -37.1119  -32.3714 H   0  0  0  0  0  0  0  0  0  0  0  0  # atno 3781 bound_to 1176
  -14.4588  -27.6879  -37.9400 H   0  0  0  0  0  0  0  0  0  0  0  0  # atno 3847 bound_to 1247
  -13.2215  -25.2920  -39.0511 H   0  0  0  0  0  0  0  0  0  0  0  0  # atno 4507 bound_to 1931
   -3.0672  -32.8906  -36.6558 H   0  0  0  0  0  0  0  0  0  0  0  0  # atno 4531 bound_to 1957
   -2.1212  -30.2723  -29.5962 LP  0  0  0  0  0  0  0  0  0  0  0  0  # atno 5201 bound_to 925 
   -3.0134  -29.7671  -30.8672 LP  0  0  0  0  0  0  0  0  0  0  0  0  # atno 5202 bound_to 925 
  -10.7937  -37.2124  -33.7165 LP  0  0  0  0  0  0  0  0  0  0  0  0  # atno 5205 bound_to 1176
   -9.4347  -36.3071  -33.7127 LP  0  0  0  0  0  0  0  0  0  0  0  0  # atno 5206 bound_to 1176
   -1.5227  -32.4636  -36.9396 LP  0  0  0  0  0  0  0  0  0  0  0  0  # atno 5213 bound_to 1957
   -1.9403  -34.0415  -36.8875 LP  0  0  0  0  0  0  0  0  0  0  0  0  # atno 5214 bound_to 1957
  -15.1282  -28.9652  -37.1859 LP  0  0  0  0  0  0  0  0  0  0  0  0  # atno 5227 bound_to 1247
  -15.9826  -27.5868  -37.3779 LP  0  0  0  0  0  0  0  0  0  0  0  0  # atno 5228 bound_to 1247
  -13.5201  -24.5357  -40.4606 LP  0  0  0  0  0  0  0  0  0  0  0  0  # atno 5245 bound_to 1931
  -12.4520  -23.9014  -39.4007 LP  0  0  0  0  0  0  0  0  0  0  0  0  # atno 5246 bound_to 1931
  -12.2596  -22.3101  -30.3395 LP  0  0  0  0  0  0  0  0  0  0  0  0  # atno 5265 bound_to 1070
  -12.4996  -23.7616  -31.0482 LP  0  0  0  0  0  0  0  0  0  0  0  0  # atno 5266 bound_to 1070

$$$$
EZ_17|Lisa_paper2_min|sdf|4|dock1
  -GOLD-  10202014253D 1   1.00000     0.00000

 48 51  0  0  0  0  0  0  0  0  1 V2000
  -19.9056  -24.6386  -38.9221 C   0  0  0  0  0  0  0  0  0  0  0  0
  -19.2551  -23.5004  -39.4041 C   0  0  0  0  0  0  0  0  0  0  0  0
  -19.2604  -25.5225  -38.0480 C   0  0  0  0  0  0  0  0  0  0  0  0
  -17.9399  -23.2036  -39.0318 C   0  0  0  0  0  0  0  0  0  0  0  0
  -10.5355  -27.7159  -36.4647 C   0  0  0  0  0  0  0  0  0  0  0  0
   -5.4153  -30.4640  -34.8480 C   0  0  0  0  0  0  0  0  0  0  0  0
  -11.7458  -27.3253  -37.0373 C   0  0  0  0  0  0  0  0  0  0  0  0
   -4.5415  -31.5294  -34.6317 C   0  0  0  0  0  0  0  0  0  0  0  0
  -12.1272  -25.8084  -35.1959 C   0  0  0  0  0  0  0  0  0  0  0  0
   -6.0343  -30.4975  -32.5129 C   0  0  0  0  0  0  0  0  0  0  0  0
  -10.9168  -26.1991  -34.6233 C   0  0  0  0  0  0  0  0  0  0  0  0
  -17.9388  -25.2400  -37.6635 C   0  0  0  0  0  0  0  0  0  0  0  0
  -17.3171  -24.0979  -38.1605 C   0  0  0  0  0  0  0  0  0  0  0  0
   -6.1617  -29.9479  -33.7886 C   0  0  0  0  0  0  0  0  0  0  0  0
  -10.1209  -27.1529  -35.2578 C   0  0  0  0  0  0  0  0  0  0  0  0
  -12.5418  -26.3715  -36.4029 C   0  0  0  0  0  0  0  0  0  0  0  0
   -4.4141  -32.0790  -33.3560 C   0  0  0  0  0  0  0  0  0  0  0  0
   -5.1606  -31.5630  -32.2966 C   0  0  0  0  0  0  0  0  0  0  0  0
  -15.9794  -25.2356  -36.8147 C   0  0  0  0  0  0  0  0  0  0  0  0
   -8.2740  -28.8031  -34.6552 C   0  0  0  0  0  0  0  0  0  0  0  0
  -10.4984  -25.5791  -33.3297 C   0  0  0  0  0  0  0  0  0  0  0  0
  -14.7488  -25.5521  -36.0661 C   0  0  0  0  0  0  0  0  0  0  0  0
  -17.0926  -25.9339  -36.8294 N   0  0  0  0  0  0  0  0  0  0  0  0
  -16.0652  -24.1205  -37.6010 N   0  0  0  0  0  0  0  0  0  0  0  0
   -7.0489  -28.8648  -34.0087 N   0  0  0  0  0  0  0  0  0  0  0  0
   -8.9063  -27.5586  -34.6991 N   0  0  0  0  0  0  0  0  0  0  0  0
  -13.7283  -25.9881  -36.9646 O   0  0  0  0  0  0  0  0  0  0  0  0
   -8.9221  -30.2647  -35.1885 S   0  0  0  0  0  0  0  0  0  0  0  0
   -3.3174  -33.3996  -33.1528 Cl  0  0  0  0  0  0  0  0  0  0  0  0
   -5.0480  -32.2025  -30.6943 Cl  0  0  0  0  0  0  0  0  0  0  0  0
  -20.9283  -24.8421  -39.2294 H   0  0  0  0  0  0  0  0  0  0  0  0
  -19.7801  -22.8326  -40.0828 H   0  0  0  0  0  0  0  0  0  0  0  0
  -19.7752  -26.4036  -37.6785 H   0  0  0  0  0  0  0  0  0  0  0  0
  -17.4339  -22.3202  -39.4041 H   0  0  0  0  0  0  0  0  0  0  0  0
   -9.9240  -28.4610  -36.9679 H   0  0  0  0  0  0  0  0  0  0  0  0
   -5.5059  -30.0420  -35.8457 H   0  0  0  0  0  0  0  0  0  0  0  0
  -12.0631  -27.7673  -37.9779 H   0  0  0  0  0  0  0  0  0  0  0  0
   -3.9667  -31.9179  -35.4687 H   0  0  0  0  0  0  0  0  0  0  0  0
  -12.7502  -25.0655  -34.7036 H   0  0  0  0  0  0  0  0  0  0  0  0
   -6.6202  -30.0915  -31.6907 H   0  0  0  0  0  0  0  0  0  0  0  0
  -10.8767  -26.1686  -32.4869 H   0  0  0  0  0  0  0  0  0  0  0  0
   -9.4059  -25.5209  -33.2541 H   0  0  0  0  0  0  0  0  0  0  0  0
  -10.8803  -24.5548  -33.2402 H   0  0  0  0  0  0  0  0  0  0  0  0
  -14.3616  -24.6789  -35.5110 H   0  0  0  0  0  0  0  0  0  0  0  0
  -14.9121  -26.3515  -35.3214 H   0  0  0  0  0  0  0  0  0  0  0  0
  -15.3376  -23.4328  -37.7456 H   0  0  0  0  0  0  0  0  0  0  0  0
   -6.7480  -27.9850  -33.5945 H   0  0  0  0  0  0  0  0  0  0  0  0
   -8.4290  -26.8449  -34.1384 H   0  0  0  0  0  0  0  0  0  0  0  0
  1  2  2  0  0  0  0
  1  3  1  0  0  0  0
  2  4  1  0  0  0  0
  3 12  2  0  0  0  0
  4 13  2  0  0  0  0
  5  7  1  0  0  0  0
  5 15  2  0  0  0  0
  6  8  1  0  0  0  0
  6 14  2  0  0  0  0
  7 16  2  0  0  0  0
  8 17  2  0  0  0  0
  9 11  2  0  0  0  0
  9 16  1  0  0  0  0
 10 14  1  0  0  0  0
 10 18  2  0  0  0  0
 11 15  1  0  0  0  0
 11 21  1  0  0  0  0
 12 13  1  0  0  0  0
 12 23  1  0  0  0  0
 13 24  1  0  0  0  0
 14 25  1  0  0  0  0
 15 26  1  0  0  0  0
 16 27  1  0  0  0  0
 17 18  1  0  0  0  0
 17 29  1  0  0  0  0
 18 30  1  0  0  0  0
 19 22  1  0  0  0  0
 19 23  2  0  0  0  0
 19 24  1  0  0  0  0
 20 25  1  0  0  0  0
 20 26  1  0  0  0  0
 20 28  2  0  0  0  0
 22 27  1  0  0  0  0
  1 31  1  0  0  0  0
  2 32  1  0  0  0  0
  3 33  1  0  0  0  0
  4 34  1  0  0  0  0
  5 35  1  0  0  0  0
  6 36  1  0  0  0  0
  7 37  1  0  0  0  0
  8 38  1  0  0  0  0
  9 39  1  0  0  0  0
 10 40  1  0  0  0  0
 21 41  1  0  0  0  0
 21 42  1  0  0  0  0
 21 43  1  0  0  0  0
 22 44  1  0  0  0  0
 22 45  1  0  0  0  0
 24 46  1  0  0  0  0
 25 47  1  0  0  0  0
 26 48  1  0  0  0  0
M  END
> <Name>
EZ_17

> <SourceTag>
EZ_17

> <Activity_sEH>
223.4

> <Activity_FLAP>
0.6

> <Gold.Version>
5.2

> <Gold.Id.Protein>
6HGV|6HGV_protein|mol2

> <Gold.PLP.Fitness>
79.5943

> <Gold.PLP.PLP>
-77.6092

> <Gold.PLP.part.hbond>
-6.5138

> <Gold.PLP.part.metal>
0.0000

> <Gold.PLP.part.buried>
7.4584

> <Gold.PLP.part.nonpolar>
-79.4932

> <Gold.PLP.part.repulsive>
0.1187

> <Gold.PLP.ligand.clash>
0.0000

> <Gold.PLP.ligand.torsion>
1.4629

> <Gold.PLP.Chemscore.Hbond>
0.8409

> <Gold.PLP.Chemscore.CHOScore>
0.0000

> <Gold.PLP.Chemscore.Metal>
0.0000

> <Gold.Chemscore.Hbonds>
donor molecule, donor type, donor heavy atom, donor atom, acceptor molecule, acceptor atom, score
      L1  H    24    46       P1   853  0.05
      P1  H  1247  3847       L1    27  0.30
      P1  H  1931  4507       L1    27  0.48

> <Gold.PLP.Chemscore.Internal.Correction>
0.6394

> <Gold.Protein.RotatedTorsions>
[ 3525  925  924  922 ] final  150.05 input   59.99 | X-H torsion
[ 3781 1176 1175 1172 ] final -172.11 input   60.00 | X-H torsion
[ 4531 1957 1955 1953 ] final   -1.28 input   60.00 | X-H torsion
[ 3847 1247 1246 1244 ] final  170.28 input   60.00 | X-H torsion
[ 4507 1931 1930 1928 ] final   -4.68 input   60.00 | X-H torsion
[ 3677 1070 1069 1066 ] final  148.99 input   60.00 | X-H torsion

> <Gold.Protein.ActiveResidues>
 GLY266  PHE267  PRO268  GLU269  MET310  HIS334  ASP335  TRP336  GLY337  GLY338 
 MET339  LEU340  TRP342  TYR343  LEU358  ASN359  THR360  PRO361  ILE363  ALA365 
 MET369  SER370  PRO371  LEU372  GLU373  SER374  ILE375  LYS376  ALA377  ASN378 
 VAL380  PHE381  ASP382  TYR383  GLN384  PHE387  GLN388  LEU397  SER407  LEU408 
 PHE409  ARG410  LEU417  MET419  LEU428  PHE429  PHE459  TRP465  TYR466  ASN468 
 MET469  GLU470  ASN472  TRP473  ALA476  ASP496  PHE497  VAL498  LEU499  MET503 
 HIS524  TRP525 

> <Gold.Protein.RotatedAtoms>
   -2.0620  -30.2721  -29.8531 H   0  0  0  0  0  0  0  0  0  0  0  0  # atno 3525 bound_to 925 
  -11.2500  -22.3910  -30.8790 H   0  0  0  0  0  0  0  0  0  0  0  0  # atno 3677 bound_to 1070
   -9.2495  -36.4634  -32.9736 H   0  0  0  0  0  0  0  0  0  0  0  0  # atno 3781 bound_to 1176
  -14.5567  -27.5547  -37.9525 H   0  0  0  0  0  0  0  0  0  0  0  0  # atno 3847 bound_to 1247
  -13.3053  -25.3357  -39.1415 H   0  0  0  0  0  0  0  0  0  0  0  0  # atno 4507 bound_to 1931
   -2.8428  -32.4854  -36.6915 H   0  0  0  0  0  0  0  0  0  0  0  0  # atno 4531 bound_to 1957
   -3.2481  -29.6717  -30.7914 LP  0  0  0  0  0  0  0  0  0  0  0  0  # atno 5201 bound_to 925 
   -3.4389  -29.7367  -29.1709 LP  0  0  0  0  0  0  0  0  0  0  0  0  # atno 5202 bound_to 925 
  -10.5276  -37.4251  -32.6745 LP  0  0  0  0  0  0  0  0  0  0  0  0  # atno 5205 bound_to 1176
  -10.3392  -36.7475  -34.1482 LP  0  0  0  0  0  0  0  0  0  0  0  0  # atno 5206 bound_to 1176
   -1.2891  -32.8657  -36.9910 LP  0  0  0  0  0  0  0  0  0  0  0  0  # atno 5213 bound_to 1957
   -2.3998  -34.0475  -36.8003 LP  0  0  0  0  0  0  0  0  0  0  0  0  # atno 5214 bound_to 1957
  -14.9733  -28.9612  -37.2482 LP  0  0  0  0  0  0  0  0  0  0  0  0  # atno 5227 bound_to 1247
  -16.0389  -27.7250  -37.3029 LP  0  0  0  0  0  0  0  0  0  0  0  0  # atno 5228 bound_to 1247
  -13.4535  -24.4239  -40.4811 LP  0  0  0  0  0  0  0  0  0  0  0  0  # atno 5245 bound_to 1931
  -12.4342  -23.9692  -39.2892 LP  0  0  0  0  0  0  0  0  0  0  0  0  # atno 5246 bound_to 1931
  -12.7408  -22.8382  -30.4037 LP  0  0  0  0  0  0  0  0  0  0  0  0  # atno 5265 bound_to 1070
  -11.8682  -23.8086  -31.3854 LP  0  0  0  0  0  0  0  0  0  0  0  0  # atno 5266 bound_to 1070

$$$$
EZ_17|Lisa_paper2_min|sdf|4|dock5
  -GOLD-  10202014263D 1   1.00000     0.00000

 48 51  0  0  0  0  0  0  0  0  1 V2000
  -19.9952  -24.5854  -38.8591 C   0  0  0  0  0  0  0  0  0  0  0  0
  -19.3319  -23.4701  -39.3758 C   0  0  0  0  0  0  0  0  0  0  0  0
  -19.3478  -25.4701  -37.9874 C   0  0  0  0  0  0  0  0  0  0  0  0
  -18.0011  -23.1978  -39.0418 C   0  0  0  0  0  0  0  0  0  0  0  0
  -10.6084  -27.7691  -36.6539 C   0  0  0  0  0  0  0  0  0  0  0  0
   -5.7216  -30.8610  -35.1607 C   0  0  0  0  0  0  0  0  0  0  0  0
  -11.8149  -27.3300  -37.1990 C   0  0  0  0  0  0  0  0  0  0  0  0
   -4.8811  -31.9582  -34.9731 C   0  0  0  0  0  0  0  0  0  0  0  0
  -12.1651  -25.9075  -35.2779 C   0  0  0  0  0  0  0  0  0  0  0  0
   -6.0232  -30.6832  -32.7702 C   0  0  0  0  0  0  0  0  0  0  0  0
  -10.9587  -26.3467  -34.7327 C   0  0  0  0  0  0  0  0  0  0  0  0
  -18.0107  -25.2120  -37.6412 C   0  0  0  0  0  0  0  0  0  0  0  0
  -17.3764  -24.0923  -38.1723 C   0  0  0  0  0  0  0  0  0  0  0  0
   -6.2926  -30.2233  -34.0593 C   0  0  0  0  0  0  0  0  0  0  0  0
  -10.1803  -27.2775  -35.4208 C   0  0  0  0  0  0  0  0  0  0  0  0
  -12.5933  -26.3991  -36.5111 C   0  0  0  0  0  0  0  0  0  0  0  0
   -4.6117  -32.4181  -33.6840 C   0  0  0  0  0  0  0  0  0  0  0  0
   -5.1828  -31.7805  -32.5826 C   0  0  0  0  0  0  0  0  0  0  0  0
  -16.0305  -25.2393  -36.8426 C   0  0  0  0  0  0  0  0  0  0  0  0
   -8.3803  -28.9969  -34.8721 C   0  0  0  0  0  0  0  0  0  0  0  0
  -10.5254  -25.8028  -33.4101 C   0  0  0  0  0  0  0  0  0  0  0  0
  -14.7886  -25.5722  -36.1203 C   0  0  0  0  0  0  0  0  0  0  0  0
  -17.1592  -25.9120  -36.8177 N   0  0  0  0  0  0  0  0  0  0  0  0
  -16.1114  -24.1349  -37.6444 N   0  0  0  0  0  0  0  0  0  0  0  0
   -7.1459  -29.1080  -34.2504 N   0  0  0  0  0  0  0  0  0  0  0  0
   -8.9700  -27.7310  -34.8904 N   0  0  0  0  0  0  0  0  0  0  0  0
  -13.7759  -25.9682  -37.0459 O   0  0  0  0  0  0  0  0  0  0  0  0
   -9.0886  -30.4292  -35.4083 S   0  0  0  0  0  0  0  0  0  0  0  0
   -3.5652  -33.7837  -33.5173 Cl  0  0  0  0  0  0  0  0  0  0  0  0
   -4.8890  -32.3046  -30.9615 Cl  0  0  0  0  0  0  0  0  0  0  0  0
  -21.0298  -24.7701  -39.1370 H   0  0  0  0  0  0  0  0  0  0  0  0
  -19.8589  -22.8010  -40.0517 H   0  0  0  0  0  0  0  0  0  0  0  0
  -19.8727  -26.3332  -37.5908 H   0  0  0  0  0  0  0  0  0  0  0  0
  -17.4851  -22.3321  -39.4411 H   0  0  0  0  0  0  0  0  0  0  0  0
  -10.0107  -28.4957  -37.1990 H   0  0  0  0  0  0  0  0  0  0  0  0
   -5.9237  -30.5097  -36.1694 H   0  0  0  0  0  0  0  0  0  0  0  0
  -12.1428  -27.7164  -38.1602 H   0  0  0  0  0  0  0  0  0  0  0  0
   -4.4437  -32.4419  -35.8429 H   0  0  0  0  0  0  0  0  0  0  0  0
  -12.7744  -25.1823  -34.7438 H   0  0  0  0  0  0  0  0  0  0  0  0
   -6.4727  -30.1824  -31.9150 H   0  0  0  0  0  0  0  0  0  0  0  0
  -10.9095  -26.4305  -32.5979 H   0  0  0  0  0  0  0  0  0  0  0  0
   -9.4318  -25.7656  -33.3367 H   0  0  0  0  0  0  0  0  0  0  0  0
  -10.8908  -24.7790  -33.2644 H   0  0  0  0  0  0  0  0  0  0  0  0
  -14.4011  -24.7161  -35.5394 H   0  0  0  0  0  0  0  0  0  0  0  0
  -14.9368  -26.3986  -35.4024 H   0  0  0  0  0  0  0  0  0  0  0  0
  -15.3725  -23.4665  -37.8185 H   0  0  0  0  0  0  0  0  0  0  0  0
   -6.8068  -28.2438  -33.8327 H   0  0  0  0  0  0  0  0  0  0  0  0
   -8.4576  -27.0406  -34.3315 H   0  0  0  0  0  0  0  0  0  0  0  0
  1  2  2  0  0  0  0
  1  3  1  0  0  0  0
  2  4  1  0  0  0  0
  3 12  2  0  0  0  0
  4 13  2  0  0  0  0
  5  7  1  0  0  0  0
  5 15  2  0  0  0  0
  6  8  1  0  0  0  0
  6 14  2  0  0  0  0
  7 16  2  0  0  0  0
  8 17  2  0  0  0  0
  9 11  2  0  0  0  0
  9 16  1  0  0  0  0
 10 14  1  0  0  0  0
 10 18  2  0  0  0  0
 11 15  1  0  0  0  0
 11 21  1  0  0  0  0
 12 13  1  0  0  0  0
 12 23  1  0  0  0  0
 13 24  1  0  0  0  0
 14 25  1  0  0  0  0
 15 26  1  0  0  0  0
 16 27  1  0  0  0  0
 17 18  1  0  0  0  0
 17 29  1  0  0  0  0
 18 30  1  0  0  0  0
 19 22  1  0  0  0  0
 19 23  2  0  0  0  0
 19 24  1  0  0  0  0
 20 25  1  0  0  0  0
 20 26  1  0  0  0  0
 20 28  2  0  0  0  0
 22 27  1  0  0  0  0
  1 31  1  0  0  0  0
  2 32  1  0  0  0  0
  3 33  1  0  0  0  0
  4 34  1  0  0  0  0
  5 35  1  0  0  0  0
  6 36  1  0  0  0  0
  7 37  1  0  0  0  0
  8 38  1  0  0  0  0
  9 39  1  0  0  0  0
 10 40  1  0  0  0  0
 21 41  1  0  0  0  0
 21 42  1  0  0  0  0
 21 43  1  0  0  0  0
 22 44  1  0  0  0  0
 22 45  1  0  0  0  0
 24 46  1  0  0  0  0
 25 47  1  0  0  0  0
 26 48  1  0  0  0  0
M  END
> <Name>
EZ_17

> <SourceTag>
EZ_17

> <Activity_sEH>
223.4

> <Activity_FLAP>
0.6

> <Gold.Version>
5.2

> <Gold.Id.Protein>
6HGV|6HGV_protein|mol2

> <Gold.PLP.Fitness>
78.9220

> <Gold.PLP.PLP>
-77.2932

> <Gold.PLP.part.hbond>
-6.3430

> <Gold.PLP.part.metal>
0.0000

> <Gold.PLP.part.buried>
7.4665

> <Gold.PLP.part.nonpolar>
-77.9939

> <Gold.PLP.part.repulsive>
0.1208

> <Gold.PLP.ligand.clash>
0.0000

> <Gold.PLP.ligand.torsion>
1.3675

> <Gold.PLP.Chemscore.Hbond>
0.7057

> <Gold.PLP.Chemscore.CHOScore>
0.0000

> <Gold.PLP.Chemscore.Metal>
0.0000

> <Gold.Chemscore.Hbonds>
donor molecule, donor type, donor heavy atom, donor atom, acceptor molecule, acceptor atom, score
      L1  H    24    46       P1   853  0.02
      P1  H  1247  3847       L1    27  0.21
      P1  H  1931  4507       L1    27  0.47

> <Gold.PLP.Chemscore.Internal.Correction>
0.6394

> <Gold.Protein.RotatedTorsions>
[ 3525  925  924  922 ] final  -76.42 input   59.99 | X-H torsion
[ 3781 1176 1175 1172 ] final -174.78 input   60.00 | X-H torsion
[ 4531 1957 1955 1953 ] final   34.69 input   60.00 | X-H torsion
[ 3847 1247 1246 1244 ] final  173.67 input   60.00 | X-H torsion
[ 4507 1931 1930 1928 ] final   -7.14 input   60.00 | X-H torsion
[ 3677 1070 1069 1066 ] final    1.77 input   60.00 | X-H torsion

> <Gold.Protein.ActiveResidues>
 GLY266  PHE267  PRO268  GLU269  MET310  HIS334  ASP335  TRP336  GLY337  GLY338 
 MET339  LEU340  TRP342  TYR343  LEU358  ASN359  THR360  PRO361  ILE363  ALA365 
 MET369  SER370  PRO371  LEU372  GLU373  SER374  ILE375  LYS376  ALA377  ASN378 
 VAL380  PHE381  ASP382  TYR383  GLN384  PHE387  GLN388  LEU397  SER407  LEU408 
 PHE409  ARG410  LEU417  MET419  LEU428  PHE429  PHE459  TRP465  TYR466  ASN468 
 MET469  GLU470  ASN472  TRP473  ALA476  ASP496  PHE497  VAL498  LEU499  MET503 
 HIS524  TRP525 

> <Gold.Protein.RotatedAtoms>
   -3.5797  -29.6589  -29.3232 H   0  0  0  0  0  0  0  0  0  0  0  0  # atno 3525 bound_to 925 
  -12.8107  -23.2326  -30.5910 H   0  0  0  0  0  0  0  0  0  0  0  0  # atno 3677 bound_to 1070
   -9.2553  -36.4820  -32.9346 H   0  0  0  0  0  0  0  0  0  0  0  0  # atno 3781 bound_to 1176
  -14.5939  -27.5136  -37.9536 H   0  0  0  0  0  0  0  0  0  0  0  0  # atno 3847 bound_to 1247
  -13.3302  -25.3462  -39.1713 H   0  0  0  0  0  0  0  0  0  0  0  0  # atno 4507 bound_to 1931
   -3.0903  -33.0065  -36.6534 H   0  0  0  0  0  0  0  0  0  0  0  0  # atno 4531 bound_to 1957
   -2.1064  -30.2751  -29.6362 LP  0  0  0  0  0  0  0  0  0  0  0  0  # atno 5201 bound_to 925 
   -3.0522  -29.7508  -30.8599 LP  0  0  0  0  0  0  0  0  0  0  0  0  # atno 5202 bound_to 925 
  -10.5565  -37.4323  -32.7068 LP  0  0  0  0  0  0  0  0  0  0  0  0  # atno 5205 bound_to 1176
  -10.3044  -36.7216  -34.1553 LP  0  0  0  0  0  0  0  0  0  0  0  0  # atno 5206 bound_to 1176
   -1.6104  -32.3851  -36.9216 LP  0  0  0  0  0  0  0  0  0  0  0  0  # atno 5213 bound_to 1957
   -1.8294  -34.0033  -36.9079 LP  0  0  0  0  0  0  0  0  0  0  0  0  # atno 5214 bound_to 1957
  -14.9229  -28.9537  -37.2709 LP  0  0  0  0  0  0  0  0  0  0  0  0  # atno 5227 bound_to 1247
  -16.0518  -27.7738  -37.2791 LP  0  0  0  0  0  0  0  0  0  0  0  0  # atno 5228 bound_to 1247
  -13.4315  -24.3900  -40.4841 LP  0  0  0  0  0  0  0  0  0  0  0  0  # atno 5245 bound_to 1931
  -12.4312  -23.9925  -39.2561 LP  0  0  0  0  0  0  0  0  0  0  0  0  # atno 5246 bound_to 1931
  -11.4827  -23.6007  -31.4565 LP  0  0  0  0  0  0  0  0  0  0  0  0  # atno 5265 bound_to 1070
  -11.5546  -22.1986  -30.6226 LP  0  0  0  0  0  0  0  0  0  0  0  0  # atno 5266 bound_to 1070

$$$$
EZ_17|Lisa_paper2_min|sdf|4|dock2
  -GOLD-  10202014253D 1   1.00000     0.00000

 48 51  0  0  0  0  0  0  0  0  1 V2000
  -19.1485  -23.7218  -39.8273 C   0  0  0  0  0  0  0  0  0  0  0  0
  -18.1911  -22.8988  -40.4247 C   0  0  0  0  0  0  0  0  0  0  0  0
  -18.8022  -24.5950  -38.7885 C   0  0  0  0  0  0  0  0  0  0  0  0
  -16.8560  -22.9174  -40.0077 C   0  0  0  0  0  0  0  0  0  0  0  0
  -10.4144  -27.9060  -36.4632 C   0  0  0  0  0  0  0  0  0  0  0  0
   -4.8007  -29.8008  -33.5106 C   0  0  0  0  0  0  0  0  0  0  0  0
  -11.5600  -27.4992  -37.1469 C   0  0  0  0  0  0  0  0  0  0  0  0
   -3.8948  -30.8429  -33.3139 C   0  0  0  0  0  0  0  0  0  0  0  0
  -12.0041  -25.8607  -35.4279 C   0  0  0  0  0  0  0  0  0  0  0  0
   -6.6221  -31.3880  -33.5316 C   0  0  0  0  0  0  0  0  0  0  0  0
  -10.8584  -26.2676  -34.7441 C   0  0  0  0  0  0  0  0  0  0  0  0
  -17.4654  -24.6269  -38.3570 C   0  0  0  0  0  0  0  0  0  0  0  0
  -16.5340  -23.7948  -38.9718 C   0  0  0  0  0  0  0  0  0  0  0  0
   -6.1644  -30.0732  -33.6193 C   0  0  0  0  0  0  0  0  0  0  0  0
  -10.0636  -27.2902  -35.2618 C   0  0  0  0  0  0  0  0  0  0  0  0
  -12.3549  -26.4765  -36.6293 C   0  0  0  0  0  0  0  0  0  0  0  0
   -4.3524  -32.1577  -33.2262 C   0  0  0  0  0  0  0  0  0  0  0  0
   -5.7161  -32.4302  -33.3350 C   0  0  0  0  0  0  0  0  0  0  0  0
  -15.6077  -25.0221  -37.3810 C   0  0  0  0  0  0  0  0  0  0  0  0
   -8.2094  -28.9189  -34.6238 C   0  0  0  0  0  0  0  0  0  0  0  0
  -10.5074  -25.5900  -33.4593 C   0  0  0  0  0  0  0  0  0  0  0  0
  -14.5368  -25.5381  -36.5082 C   0  0  0  0  0  0  0  0  0  0  0  0
  -16.8717  -25.3816  -37.3715 N   0  0  0  0  0  0  0  0  0  0  0  0
  -15.3548  -24.0686  -38.3276 N   0  0  0  0  0  0  0  0  0  0  0  0
   -7.0847  -29.0139  -33.8184 N   0  0  0  0  0  0  0  0  0  0  0  0
   -8.9134  -27.7131  -34.5908 N   0  0  0  0  0  0  0  0  0  0  0  0
  -13.4779  -26.0773  -37.3000 O   0  0  0  0  0  0  0  0  0  0  0  0
   -8.6751  -30.3177  -35.4404 S   0  0  0  0  0  0  0  0  0  0  0  0
   -3.1802  -33.4051  -32.9852 Cl  0  0  0  0  0  0  0  0  0  0  0  0
   -6.3438  -34.0381  -33.2368 Cl  0  0  0  0  0  0  0  0  0  0  0  0
  -20.1785  -23.6843  -40.1731 H   0  0  0  0  0  0  0  0  0  0  0  0
  -18.4882  -22.2316  -41.2302 H   0  0  0  0  0  0  0  0  0  0  0  0
  -19.5541  -25.2296  -38.3305 H   0  0  0  0  0  0  0  0  0  0  0  0
  -16.1119  -22.2786  -40.4695 H   0  0  0  0  0  0  0  0  0  0  0  0
   -9.8031  -28.7050  -36.8760 H   0  0  0  0  0  0  0  0  0  0  0  0
   -4.4338  -28.7796  -33.5759 H   0  0  0  0  0  0  0  0  0  0  0  0
  -11.8278  -27.9825  -38.0826 H   0  0  0  0  0  0  0  0  0  0  0  0
   -2.8358  -30.6118  -33.2299 H   0  0  0  0  0  0  0  0  0  0  0  0
  -12.6261  -25.0641  -35.0267 H   0  0  0  0  0  0  0  0  0  0  0  0
   -7.6870  -31.5945  -33.6185 H   0  0  0  0  0  0  0  0  0  0  0  0
  -10.9735  -26.1119  -32.6159 H   0  0  0  0  0  0  0  0  0  0  0  0
   -9.4218  -25.5738  -33.3044 H   0  0  0  0  0  0  0  0  0  0  0  0
  -10.8466  -24.5470  -33.4567 H   0  0  0  0  0  0  0  0  0  0  0  0
  -14.1096  -24.7508  -35.8614 H   0  0  0  0  0  0  0  0  0  0  0  0
  -14.9000  -26.3355  -35.8355 H   0  0  0  0  0  0  0  0  0  0  0  0
  -14.4593  -23.6393  -38.5200 H   0  0  0  0  0  0  0  0  0  0  0  0
   -6.9054  -28.1897  -33.2486 H   0  0  0  0  0  0  0  0  0  0  0  0
   -8.5688  -27.0657  -33.8742 H   0  0  0  0  0  0  0  0  0  0  0  0
  1  2  2  0  0  0  0
  1  3  1  0  0  0  0
  2  4  1  0  0  0  0
  3 12  2  0  0  0  0
  4 13  2  0  0  0  0
  5  7  1  0  0  0  0
  5 15  2  0  0  0  0
  6  8  1  0  0  0  0
  6 14  2  0  0  0  0
  7 16  2  0  0  0  0
  8 17  2  0  0  0  0
  9 11  2  0  0  0  0
  9 16  1  0  0  0  0
 10 14  1  0  0  0  0
 10 18  2  0  0  0  0
 11 15  1  0  0  0  0
 11 21  1  0  0  0  0
 12 13  1  0  0  0  0
 12 23  1  0  0  0  0
 13 24  1  0  0  0  0
 14 25  1  0  0  0  0
 15 26  1  0  0  0  0
 16 27  1  0  0  0  0
 17 18  1  0  0  0  0
 17 29  1  0  0  0  0
 18 30  1  0  0  0  0
 19 22  1  0  0  0  0
 19 23  2  0  0  0  0
 19 24  1  0  0  0  0
 20 25  1  0  0  0  0
 20 26  1  0  0  0  0
 20 28  2  0  0  0  0
 22 27  1  0  0  0  0
  1 31  1  0  0  0  0
  2 32  1  0  0  0  0
  3 33  1  0  0  0  0
  4 34  1  0  0  0  0
  5 35  1  0  0  0  0
  6 36  1  0  0  0  0
  7 37  1  0  0  0  0
  8 38  1  0  0  0  0
  9 39  1  0  0  0  0
 10 40  1  0  0  0  0
 21 41  1  0  0  0  0
 21 42  1  0  0  0  0
 21 43  1  0  0  0  0
 22 44  1  0  0  0  0
 22 45  1  0  0  0  0
 24 46  1  0  0  0  0
 25 47  1  0  0  0  0
 26 48  1  0  0  0  0
M  END
> <Name>
EZ_17

> <SourceTag>
EZ_17

> <Activity_sEH>
223.4

> <Activity_FLAP>
0.6

> <Gold.Version>
5.2

> <Gold.Id.Protein>
6HGV|6HGV_protein|mol2

> <Gold.PLP.Fitness>
76.9423

> <Gold.PLP.PLP>
-73.8742

> <Gold.PLP.part.hbond>
-7.0324

> <Gold.PLP.part.metal>
0.0000

> <Gold.PLP.part.buried>
8.9233

> <Gold.PLP.part.nonpolar>
-75.9583

> <Gold.PLP.part.repulsive>
0.1011

> <Gold.PLP.ligand.clash>
0.0000

> <Gold.PLP.ligand.torsion>
0.8251

> <Gold.PLP.Chemscore.Hbond>
0.9742

> <Gold.PLP.Chemscore.CHOScore>
0.0000

> <Gold.PLP.Chemscore.Metal>
0.0000

> <Gold.Chemscore.Hbonds>
donor molecule, donor type, donor heavy atom, donor atom, acceptor molecule, acceptor atom, score
      P1  H  1247  3847       L1    27  0.10
      P1  H  1931  4507       L1    27  0.88

> <Gold.PLP.Chemscore.Internal.Correction>
0.6394

> <Gold.Protein.RotatedTorsions>
[ 3525  925  924  922 ] final  -20.22 input   59.99 | X-H torsion
[ 3781 1176 1175 1172 ] final   -8.93 input   60.00 | X-H torsion
[ 4531 1957 1955 1953 ] final  110.43 input   60.00 | X-H torsion
[ 3847 1247 1246 1244 ] final  153.33 input   60.00 | X-H torsion
[ 4507 1931 1930 1928 ] final   -0.34 input   60.00 | X-H torsion
[ 3677 1070 1069 1066 ] final -125.42 input   60.00 | X-H torsion

> <Gold.Protein.ActiveResidues>
 GLY266  PHE267  PRO268  GLU269  MET310  HIS334  ASP335  TRP336  GLY337  GLY338 
 MET339  LEU340  TRP342  TYR343  LEU358  ASN359  THR360  PRO361  ILE363  ALA365 
 MET369  SER370  PRO371  LEU372  GLU373  SER374  ILE375  LYS376  ALA377  ASN378 
 VAL380  PHE381  ASP382  TYR383  GLN384  PHE387  GLN388  LEU397  SER407  LEU408 
 PHE409  ARG410  LEU417  MET419  LEU428  PHE429  PHE459  TRP465  TYR466  ASN468 
 MET469  GLU470  ASN472  TRP473  ALA476  ASP496  PHE497  VAL498  LEU499  MET503 
 HIS524  TRP525 

> <Gold.Protein.RotatedAtoms>
   -3.7348  -29.5130  -30.1789 H   0  0  0  0  0  0  0  0  0  0  0  0  # atno 3525 bound_to 925 
  -11.3981  -23.5189  -31.4485 H   0  0  0  0  0  0  0  0  0  0  0  0  # atno 3677 bound_to 1070
  -10.7577  -37.1643  -33.7889 H   0  0  0  0  0  0  0  0  0  0  0  0  # atno 3781 bound_to 1176
  -14.4060  -27.7841  -37.9239 H   0  0  0  0  0  0  0  0  0  0  0  0  # atno 3847 bound_to 1247
  -13.2604  -25.3138  -39.0912 H   0  0  0  0  0  0  0  0  0  0  0  0  # atno 4507 bound_to 1931
   -2.5252  -33.9998  -36.7780 H   0  0  0  0  0  0  0  0  0  0  0  0  # atno 4531 bound_to 1957
   -2.7207  -30.0626  -29.0311 LP  0  0  0  0  0  0  0  0  0  0  0  0  # atno 5201 bound_to 925 
   -2.2817  -30.1102  -30.6032 LP  0  0  0  0  0  0  0  0  0  0  0  0  # atno 5202 bound_to 925 
   -9.3853  -36.3042  -33.6326 LP  0  0  0  0  0  0  0  0  0  0  0  0  # atno 5205 bound_to 1176
   -9.9626  -37.1626  -32.3691 LP  0  0  0  0  0  0  0  0  0  0  0  0  # atno 5206 bound_to 1176
   -2.7476  -32.3894  -36.7055 LP  0  0  0  0  0  0  0  0  0  0  0  0  # atno 5213 bound_to 1957
   -1.2612  -32.9988  -36.9986 LP  0  0  0  0  0  0  0  0  0  0  0  0  # atno 5214 bound_to 1957
  -15.2330  -28.9523  -37.1497 LP  0  0  0  0  0  0  0  0  0  0  0  0  # atno 5227 bound_to 1247
  -15.9309  -27.5028  -37.4303 LP  0  0  0  0  0  0  0  0  0  0  0  0  # atno 5228 bound_to 1247
  -13.4906  -24.4842  -40.4721 LP  0  0  0  0  0  0  0  0  0  0  0  0  # atno 5245 bound_to 1931
  -12.4423  -23.9309  -39.3489 LP  0  0  0  0  0  0  0  0  0  0  0  0  # atno 5246 bound_to 1931
  -11.6541  -22.1784  -30.5622 LP  0  0  0  0  0  0  0  0  0  0  0  0  # atno 5265 bound_to 1070
  -12.8057  -23.3326  -30.6534 LP  0  0  0  0  0  0  0  0  0  0  0  0  # atno 5266 bound_to 1070

$$$$
EZ_17|Lisa_paper2_min|sdf|4|dock9
  -GOLD-  10202014273D 1   1.00000     0.00000

 48 51  0  0  0  0  0  0  0  0  1 V2000
  -18.3331  -23.3484  -39.5867 C   0  0  0  0  0  0  0  0  0  0  0  0
  -17.0967  -22.9998  -40.1352 C   0  0  0  0  0  0  0  0  0  0  0  0
  -18.4177  -24.2236  -38.4965 C   0  0  0  0  0  0  0  0  0  0  0  0
  -15.9024  -23.5110  -39.6165 C   0  0  0  0  0  0  0  0  0  0  0  0
  -11.2461  -28.2098  -35.4673 C   0  0  0  0  0  0  0  0  0  0  0  0
   -6.8034  -31.9031  -35.2640 C   0  0  0  0  0  0  0  0  0  0  0  0
  -12.5296  -27.6688  -35.5417 C   0  0  0  0  0  0  0  0  0  0  0  0
   -6.0622  -33.0797  -35.1553 C   0  0  0  0  0  0  0  0  0  0  0  0
  -11.7095  -25.5956  -34.6108 C   0  0  0  0  0  0  0  0  0  0  0  0
   -5.1877  -30.7573  -33.8807 C   0  0  0  0  0  0  0  0  0  0  0  0
  -10.4260  -26.1367  -34.5363 C   0  0  0  0  0  0  0  0  0  0  0  0
  -17.2278  -24.7468  -37.9628 C   0  0  0  0  0  0  0  0  0  0  0  0
  -16.0108  -24.3807  -38.5310 C   0  0  0  0  0  0  0  0  0  0  0  0
   -6.3662  -30.7418  -34.6268 C   0  0  0  0  0  0  0  0  0  0  0  0
  -10.1944  -27.4438  -34.9646 C   0  0  0  0  0  0  0  0  0  0  0  0
  -12.7613  -26.3616  -35.1135 C   0  0  0  0  0  0  0  0  0  0  0  0
   -4.8837  -33.0951  -34.4093 C   0  0  0  0  0  0  0  0  0  0  0  0
   -4.4465  -31.9339  -33.7720 C   0  0  0  0  0  0  0  0  0  0  0  0
  -15.7338  -25.7738  -36.8347 C   0  0  0  0  0  0  0  0  0  0  0  0
   -8.4880  -29.3284  -34.7800 C   0  0  0  0  0  0  0  0  0  0  0  0
   -9.3188  -25.2929  -33.9933 C   0  0  0  0  0  0  0  0  0  0  0  0
  -15.0034  -26.6122  -35.8658 C   0  0  0  0  0  0  0  0  0  0  0  0
  -17.0358  -25.6123  -36.9105 N   0  0  0  0  0  0  0  0  0  0  0  0
  -15.0729  -25.0522  -37.7895 N   0  0  0  0  0  0  0  0  0  0  0  0
   -7.1193  -29.5464  -34.7381 N   0  0  0  0  0  0  0  0  0  0  0  0
   -8.9164  -28.0042  -34.8962 N   0  0  0  0  0  0  0  0  0  0  0  0
  -14.0196  -25.8309  -35.1870 O   0  0  0  0  0  0  0  0  0  0  0  0
   -9.4755  -30.6736  -34.5438 S   0  0  0  0  0  0  0  0  0  0  0  0
   -4.0117  -34.5844  -34.3100 Cl  0  0  0  0  0  0  0  0  0  0  0  0
   -2.9962  -31.8906  -32.8319 Cl  0  0  0  0  0  0  0  0  0  0  0  0
  -19.2440  -22.9342  -40.0116 H   0  0  0  0  0  0  0  0  0  0  0  0
  -17.0612  -22.3192  -40.9824 H   0  0  0  0  0  0  0  0  0  0  0  0
  -19.3834  -24.4872  -38.0772 H   0  0  0  0  0  0  0  0  0  0  0  0
  -14.9420  -23.2407  -40.0404 H   0  0  0  0  0  0  0  0  0  0  0  0
  -11.0779  -29.2302  -35.8031 H   0  0  0  0  0  0  0  0  0  0  0  0
   -7.7196  -31.9015  -35.8492 H   0  0  0  0  0  0  0  0  0  0  0  0
  -13.3447  -28.2704  -35.9347 H   0  0  0  0  0  0  0  0  0  0  0  0
   -6.4173  -33.9748  -35.6599 H   0  0  0  0  0  0  0  0  0  0  0  0
  -11.8935  -24.5771  -34.2774 H   0  0  0  0  0  0  0  0  0  0  0  0
   -4.8524  -29.8486  -33.3848 H   0  0  0  0  0  0  0  0  0  0  0  0
   -9.2387  -25.4249  -32.9083 H   0  0  0  0  0  0  0  0  0  0  0  0
   -8.3580  -25.5589  -34.4504 H   0  0  0  0  0  0  0  0  0  0  0  0
   -9.4906  -24.2305  -34.2052 H   0  0  0  0  0  0  0  0  0  0  0  0
  -15.6733  -27.0501  -35.1043 H   0  0  0  0  0  0  0  0  0  0  0  0
  -14.4889  -27.4578  -36.3563 H   0  0  0  0  0  0  0  0  0  0  0  0
  -14.0713  -25.0173  -37.9265 H   0  0  0  0  0  0  0  0  0  0  0  0
   -6.5580  -28.6976  -34.7620 H   0  0  0  0  0  0  0  0  0  0  0  0
   -8.1507  -27.3260  -34.8239 H   0  0  0  0  0  0  0  0  0  0  0  0
  1  2  2  0  0  0  0
  1  3  1  0  0  0  0
  2  4  1  0  0  0  0
  3 12  2  0  0  0  0
  4 13  2  0  0  0  0
  5  7  1  0  0  0  0
  5 15  2  0  0  0  0
  6  8  1  0  0  0  0
  6 14  2  0  0  0  0
  7 16  2  0  0  0  0
  8 17  2  0  0  0  0
  9 11  2  0  0  0  0
  9 16  1  0  0  0  0
 10 14  1  0  0  0  0
 10 18  2  0  0  0  0
 11 15  1  0  0  0  0
 11 21  1  0  0  0  0
 12 13  1  0  0  0  0
 12 23  1  0  0  0  0
 13 24  1  0  0  0  0
 14 25  1  0  0  0  0
 15 26  1  0  0  0  0
 16 27  1  0  0  0  0
 17 18  1  0  0  0  0
 17 29  1  0  0  0  0
 18 30  1  0  0  0  0
 19 22  1  0  0  0  0
 19 23  2  0  0  0  0
 19 24  1  0  0  0  0
 20 25  1  0  0  0  0
 20 26  1  0  0  0  0
 20 28  2  0  0  0  0
 22 27  1  0  0  0  0
  1 31  1  0  0  0  0
  2 32  1  0  0  0  0
  3 33  1  0  0  0  0
  4 34  1  0  0  0  0
  5 35  1  0  0  0  0
  6 36  1  0  0  0  0
  7 37  1  0  0  0  0
  8 38  1  0  0  0  0
  9 39  1  0  0  0  0
 10 40  1  0  0  0  0
 21 41  1  0  0  0  0
 21 42  1  0  0  0  0
 21 43  1  0  0  0  0
 22 44  1  0  0  0  0
 22 45  1  0  0  0  0
 24 46  1  0  0  0  0
 25 47  1  0  0  0  0
 26 48  1  0  0  0  0
M  END
> <Name>
EZ_17

> <SourceTag>
EZ_17

> <Activity_sEH>
223.4

> <Activity_FLAP>
0.6

> <Gold.Version>
5.2

> <Gold.Id.Protein>
6HGV|6HGV_protein|mol2

> <Gold.PLP.Fitness>
75.9341

> <Gold.PLP.PLP>
-75.6702

> <Gold.PLP.part.hbond>
-4.8229

> <Gold.PLP.part.metal>
0.0000

> <Gold.PLP.part.buried>
8.9072

> <Gold.PLP.part.nonpolar>
-79.6007

> <Gold.PLP.part.repulsive>
1.2777

> <Gold.PLP.ligand.clash>
1.4628

> <Gold.PLP.ligand.torsion>
0.8506

> <Gold.PLP.Chemscore.Hbond>
0.5802

> <Gold.PLP.Chemscore.CHOScore>
0.0000

> <Gold.PLP.Chemscore.Metal>
0.0000

> <Gold.Chemscore.Hbonds>
donor molecule, donor type, donor heavy atom, donor atom, acceptor molecule, acceptor atom, score
      L1  H    24    46       P1  1931  0.58

> <Gold.PLP.Chemscore.Internal.Correction>
0.6394

> <Gold.Protein.RotatedTorsions>
[ 3525  925  924  922 ] final  147.48 input   59.99 | X-H torsion
[ 3781 1176 1175 1172 ] final  169.59 input   60.00 | X-H torsion
[ 4531 1957 1955 1953 ] final  -26.05 input   60.00 | X-H torsion
[ 3847 1247 1246 1244 ] final  104.05 input   60.00 | X-H torsion
[ 4507 1931 1930 1928 ] final  179.58 input   60.00 | X-H torsion
[ 3677 1070 1069 1066 ] final -174.26 input   60.00 | X-H torsion

> <Gold.Protein.ActiveResidues>
 GLY266  PHE267  PRO268  GLU269  MET310  HIS334  ASP335  TRP336  GLY337  GLY338 
 MET339  LEU340  TRP342  TYR343  LEU358  ASN359  THR360  PRO361  ILE363  ALA365 
 MET369  SER370  PRO371  LEU372  GLU373  SER374  ILE375  LYS376  ALA377  ASN378 
 VAL380  PHE381  ASP382  TYR383  GLN384  PHE387  GLN388  LEU397  SER407  LEU408 
 PHE409  ARG410  LEU417  MET419  LEU428  PHE429  PHE459  TRP465  TYR466  ASN468 
 MET469  GLU470  ASN472  TRP473  ALA476  ASP496  PHE497  VAL498  LEU499  MET503 
 HIS524  TRP525 

> <Gold.Protein.RotatedAtoms>
   -2.0579  -30.2701  -29.8949 H   0  0  0  0  0  0  0  0  0  0  0  0  # atno 3525 bound_to 925 
  -11.0900  -22.8474  -31.2176 H   0  0  0  0  0  0  0  0  0  0  0  0  # atno 3677 bound_to 1070
   -9.3231  -36.6064  -32.7231 H   0  0  0  0  0  0  0  0  0  0  0  0  # atno 3781 bound_to 1176
  -14.3748  -28.5165  -37.6559 H   0  0  0  0  0  0  0  0  0  0  0  0  # atno 3847 bound_to 1247
  -12.8663  -23.8435  -40.1814 H   0  0  0  0  0  0  0  0  0  0  0  0  # atno 4507 bound_to 1931
   -2.5149  -32.2609  -36.7499 H   0  0  0  0  0  0  0  0  0  0  0  0  # atno 4531 bound_to 1957
   -3.2836  -29.6579  -30.7729 LP  0  0  0  0  0  0  0  0  0  0  0  0  # atno 5201 bound_to 925 
   -3.4075  -29.7526  -29.1474 LP  0  0  0  0  0  0  0  0  0  0  0  0  # atno 5202 bound_to 925 
  -10.7011  -37.4498  -32.9178 LP  0  0  0  0  0  0  0  0  0  0  0  0  # atno 5205 bound_to 1176
  -10.0915  -36.5788  -34.1573 LP  0  0  0  0  0  0  0  0  0  0  0  0  # atno 5206 bound_to 1176
   -1.2628  -33.2691  -37.0030 LP  0  0  0  0  0  0  0  0  0  0  0  0  # atno 5213 bound_to 1957
   -2.7563  -33.8701  -36.7294 LP  0  0  0  0  0  0  0  0  0  0  0  0  # atno 5214 bound_to 1957
  -15.8873  -28.5269  -37.0556 LP  0  0  0  0  0  0  0  0  0  0  0  0  # atno 5227 bound_to 1247
  -15.3080  -27.1906  -37.7942 LP  0  0  0  0  0  0  0  0  0  0  0  0  # atno 5228 bound_to 1247
  -12.6411  -24.6722  -38.7992 LP  0  0  0  0  0  0  0  0  0  0  0  0  # atno 5245 bound_to 1931
  -13.6889  -25.2237  -39.9238 LP  0  0  0  0  0  0  0  0  0  0  0  0  # atno 5246 bound_to 1931
  -12.3689  -22.3809  -30.3261 LP  0  0  0  0  0  0  0  0  0  0  0  0  # atno 5265 bound_to 1070
  -12.4012  -23.8064  -31.1220 LP  0  0  0  0  0  0  0  0  0  0  0  0  # atno 5266 bound_to 1070

$$$$
EZ_17|Lisa_paper2_min|sdf|4|dock8
  -GOLD-  10202014273D 1   1.00000     0.00000

 48 51  0  0  0  0  0  0  0  0  1 V2000
   -3.3238  -32.9555  -33.6424 C   0  0  0  0  0  0  0  0  0  0  0  0
   -3.0001  -31.7598  -32.9972 C   0  0  0  0  0  0  0  0  0  0  0  0
   -4.5124  -33.0825  -34.3724 C   0  0  0  0  0  0  0  0  0  0  0  0
   -3.8490  -30.6496  -33.0572 C   0  0  0  0  0  0  0  0  0  0  0  0
  -11.0507  -27.3120  -36.6994 C   0  0  0  0  0  0  0  0  0  0  0  0
  -17.1404  -25.5991  -36.6001 C   0  0  0  0  0  0  0  0  0  0  0  0
   -9.9747  -28.0983  -36.2877 C   0  0  0  0  0  0  0  0  0  0  0  0
  -18.4842  -25.5902  -36.9735 C   0  0  0  0  0  0  0  0  0  0  0  0
  -10.0196  -27.0260  -34.1231 C   0  0  0  0  0  0  0  0  0  0  0  0
  -16.6092  -24.1739  -38.4772 C   0  0  0  0  0  0  0  0  0  0  0  0
  -11.0956  -26.2397  -34.5349 C   0  0  0  0  0  0  0  0  0  0  0  0
   -5.3771  -31.9773  -34.4432 C   0  0  0  0  0  0  0  0  0  0  0  0
   -5.0270  -30.7990  -33.7897 C   0  0  0  0  0  0  0  0  0  0  0  0
  -16.2028  -24.8909  -37.3518 C   0  0  0  0  0  0  0  0  0  0  0  0
  -11.6111  -26.3828  -35.8231 C   0  0  0  0  0  0  0  0  0  0  0  0
   -9.4591  -27.9554  -34.9994 C   0  0  0  0  0  0  0  0  0  0  0  0
  -18.8907  -24.8732  -38.0989 C   0  0  0  0  0  0  0  0  0  0  0  0
  -17.9530  -24.1650  -38.8507 C   0  0  0  0  0  0  0  0  0  0  0  0
   -6.9700  -30.6090  -34.8306 C   0  0  0  0  0  0  0  0  0  0  0  0
  -14.0081  -25.9338  -36.5648 C   0  0  0  0  0  0  0  0  0  0  0  0
  -11.6756  -25.2525  -33.5747 C   0  0  0  0  0  0  0  0  0  0  0  0
   -8.2101  -29.9578  -35.2923 C   0  0  0  0  0  0  0  0  0  0  0  0
   -6.5869  -31.8403  -35.0842 N   0  0  0  0  0  0  0  0  0  0  0  0
   -6.0638  -29.9414  -34.0547 N   0  0  0  0  0  0  0  0  0  0  0  0
  -14.8375  -24.8997  -36.9715 N   0  0  0  0  0  0  0  0  0  0  0  0
  -12.6871  -25.6031  -36.2547 N   0  0  0  0  0  0  0  0  0  0  0  0
   -8.4045  -28.7267  -34.5956 O   0  0  0  0  0  0  0  0  0  0  0  0
  -14.6529  -27.4897  -36.6281 S   0  0  0  0  0  0  0  0  0  0  0  0
  -20.5689  -24.9038  -38.5118 Cl  0  0  0  0  0  0  0  0  0  0  0  0
  -18.3946  -23.2600  -40.2560 Cl  0  0  0  0  0  0  0  0  0  0  0  0
   -2.6434  -33.8008  -33.5777 H   0  0  0  0  0  0  0  0  0  0  0  0
   -2.0712  -31.6902  -32.4363 H   0  0  0  0  0  0  0  0  0  0  0  0
   -4.7540  -34.0158  -34.8708 H   0  0  0  0  0  0  0  0  0  0  0  0
   -3.5987  -29.7206  -32.5580 H   0  0  0  0  0  0  0  0  0  0  0  0
  -11.4434  -27.4317  -37.7063 H   0  0  0  0  0  0  0  0  0  0  0  0
  -16.8346  -26.1598  -35.7204 H   0  0  0  0  0  0  0  0  0  0  0  0
   -9.5427  -28.8207  -36.9748 H   0  0  0  0  0  0  0  0  0  0  0  0
  -19.2013  -26.1465  -36.3750 H   0  0  0  0  0  0  0  0  0  0  0  0
   -9.6151  -26.9166  -33.1197 H   0  0  0  0  0  0  0  0  0  0  0  0
  -15.8729  -23.6245  -39.0604 H   0  0  0  0  0  0  0  0  0  0  0  0
  -11.1687  -24.2858  -33.6726 H   0  0  0  0  0  0  0  0  0  0  0  0
  -12.7471  -25.1062  -33.7568 H   0  0  0  0  0  0  0  0  0  0  0  0
  -11.5715  -25.5994  -32.5395 H   0  0  0  0  0  0  0  0  0  0  0  0
   -8.1870  -29.7353  -36.3742 H   0  0  0  0  0  0  0  0  0  0  0  0
   -9.0985  -30.5914  -35.1200 H   0  0  0  0  0  0  0  0  0  0  0  0
   -6.1410  -28.9856  -33.7327 H   0  0  0  0  0  0  0  0  0  0  0  0
  -14.3781  -23.9936  -37.0363 H   0  0  0  0  0  0  0  0  0  0  0  0
  -12.4536  -24.6295  -36.4762 H   0  0  0  0  0  0  0  0  0  0  0  0
  1  2  2  0  0  0  0
  1  3  1  0  0  0  0
  2  4  1  0  0  0  0
  3 12  2  0  0  0  0
  4 13  2  0  0  0  0
  5  7  1  0  0  0  0
  5 15  2  0  0  0  0
  6  8  1  0  0  0  0
  6 14  2  0  0  0  0
  7 16  2  0  0  0  0
  8 17  2  0  0  0  0
  9 11  2  0  0  0  0
  9 16  1  0  0  0  0
 10 14  1  0  0  0  0
 10 18  2  0  0  0  0
 11 15  1  0  0  0  0
 11 21  1  0  0  0  0
 12 13  1  0  0  0  0
 12 23  1  0  0  0  0
 13 24  1  0  0  0  0
 14 25  1  0  0  0  0
 15 26  1  0  0  0  0
 16 27  1  0  0  0  0
 17 18  1  0  0  0  0
 17 29  1  0  0  0  0
 18 30  1  0  0  0  0
 19 22  1  0  0  0  0
 19 23  2  0  0  0  0
 19 24  1  0  0  0  0
 20 25  1  0  0  0  0
 20 26  1  0  0  0  0
 20 28  2  0  0  0  0
 22 27  1  0  0  0  0
  1 31  1  0  0  0  0
  2 32  1  0  0  0  0
  3 33  1  0  0  0  0
  4 34  1  0  0  0  0
  5 35  1  0  0  0  0
  6 36  1  0  0  0  0
  7 37  1  0  0  0  0
  8 38  1  0  0  0  0
  9 39  1  0  0  0  0
 10 40  1  0  0  0  0
 21 41  1  0  0  0  0
 21 42  1  0  0  0  0
 21 43  1  0  0  0  0
 22 44  1  0  0  0  0
 22 45  1  0  0  0  0
 24 46  1  0  0  0  0
 25 47  1  0  0  0  0
 26 48  1  0  0  0  0
M  END
> <Name>
EZ_17

> <SourceTag>
EZ_17

> <Activity_sEH>
223.4

> <Activity_FLAP>
0.6

> <Gold.Version>
5.2

> <Gold.Id.Protein>
6HGV|6HGV_protein|mol2

> <Gold.PLP.Fitness>
75.9089

> <Gold.PLP.PLP>
-73.5425

> <Gold.PLP.part.hbond>
-4.0000

> <Gold.PLP.part.metal>
0.0000

> <Gold.PLP.part.buried>
12.3433

> <Gold.PLP.part.nonpolar>
-82.1453

> <Gold.PLP.part.repulsive>
0.0490

> <Gold.PLP.ligand.clash>
0.0000

> <Gold.PLP.ligand.torsion>
1.4795

> <Gold.PLP.Chemscore.Hbond>
0.9600

> <Gold.PLP.Chemscore.CHOScore>
0.0000

> <Gold.PLP.Chemscore.Metal>
0.0000

> <Gold.Chemscore.Hbonds>
donor molecule, donor type, donor heavy atom, donor atom, acceptor molecule, acceptor atom, score
      L1  H    25    47       P1   853  0.48
      L1  H    26    48       P1   853  0.03
      P1  H  1256  3855       L1    28  0.40
      P1  H  1247  3847       L1    28  0.05

> <Gold.PLP.Chemscore.Internal.Correction>
0.6394

> <Gold.Protein.RotatedTorsions>
[ 3525  925  924  922 ] final   -8.35 input   59.99 | X-H torsion
[ 3781 1176 1175 1172 ] final -117.65 input   60.00 | X-H torsion
[ 4531 1957 1955 1953 ] final -135.90 input   60.00 | X-H torsion
[ 3847 1247 1246 1244 ] final  131.53 input   60.00 | X-H torsion
[ 4507 1931 1930 1928 ] final -102.41 input   60.00 | X-H torsion
[ 3677 1070 1069 1066 ] final   -8.61 input   60.00 | X-H torsion

> <Gold.Protein.ActiveResidues>
 GLY266  PHE267  PRO268  GLU269  MET310  HIS334  ASP335  TRP336  GLY337  GLY338 
 MET339  LEU340  TRP342  TYR343  LEU358  ASN359  THR360  PRO361  ILE363  ALA365 
 MET369  SER370  PRO371  LEU372  GLU373  SER374  ILE375  LYS376  ALA377  ASN378 
 VAL380  PHE381  ASP382  TYR383  GLN384  PHE387  GLN388  LEU397  SER407  LEU408 
 PHE409  ARG410  LEU417  MET419  LEU428  PHE429  PHE459  TRP465  TYR466  ASN468 
 MET469  GLU470  ASN472  TRP473  ALA476  ASP496  PHE497  VAL498  LEU499  MET503 
 HIS524  TRP525 

> <Gold.Protein.RotatedAtoms>
   -3.6654  -29.5268  -30.3593 H   0  0  0  0  0  0  0  0  0  0  0  0  # atno 3525 bound_to 925 
  -12.7892  -23.3739  -30.6820 H   0  0  0  0  0  0  0  0  0  0  0  0  # atno 3677 bound_to 1070
   -9.4910  -36.3213  -33.7833 H   0  0  0  0  0  0  0  0  0  0  0  0  # atno 3781 bound_to 1176
  -14.3134  -28.1138  -37.8341 H   0  0  0  0  0  0  0  0  0  0  0  0  # atno 3847 bound_to 1247
  -13.6103  -24.7353  -40.3806 H   0  0  0  0  0  0  0  0  0  0  0  0  # atno 4507 bound_to 1931
   -1.2596  -33.1026  -37.0031 H   0  0  0  0  0  0  0  0  0  0  0  0  # atno 4531 bound_to 1957
   -2.8983  -29.9880  -29.0003 LP  0  0  0  0  0  0  0  0  0  0  0  0  # atno 5201 bound_to 925 
   -2.1740  -30.1710  -30.4523 LP  0  0  0  0  0  0  0  0  0  0  0  0  # atno 5202 bound_to 925 
   -9.8083  -37.0599  -32.3684 LP  0  0  0  0  0  0  0  0  0  0  0  0  # atno 5205 bound_to 1176
  -10.8153  -37.2558  -33.6389 LP  0  0  0  0  0  0  0  0  0  0  0  0  # atno 5206 bound_to 1176
   -2.6196  -33.9618  -36.7570 LP  0  0  0  0  0  0  0  0  0  0  0  0  # atno 5213 bound_to 1957
   -2.6636  -32.3298  -36.7204 LP  0  0  0  0  0  0  0  0  0  0  0  0  # atno 5214 bound_to 1957
  -15.5581  -28.8302  -37.0688 LP  0  0  0  0  0  0  0  0  0  0  0  0  # atno 5227 bound_to 1247
  -15.6991  -27.2930  -37.6015 LP  0  0  0  0  0  0  0  0  0  0  0  0  # atno 5228 bound_to 1247
  -12.5129  -23.8142  -39.6090 LP  0  0  0  0  0  0  0  0  0  0  0  0  # atno 5245 bound_to 1931
  -13.0677  -25.1835  -38.9134 LP  0  0  0  0  0  0  0  0  0  0  0  0  # atno 5246 bound_to 1931
  -11.3590  -23.4834  -31.4505 LP  0  0  0  0  0  0  0  0  0  0  0  0  # atno 5265 bound_to 1070
  -11.7000  -22.1736  -30.5369 LP  0  0  0  0  0  0  0  0  0  0  0  0  # atno 5266 bound_to 1070

$$$$
EZ_17|Lisa_paper2_min|sdf|4|dock7
  -GOLD-  10202014273D 1   1.00000     0.00000

 48 51  0  0  0  0  0  0  0  0  1 V2000
   -5.3640  -34.6669  -34.0375 C   0  0  0  0  0  0  0  0  0  0  0  0
   -4.1251  -34.0222  -34.0196 C   0  0  0  0  0  0  0  0  0  0  0  0
   -6.5371  -33.9670  -34.3468 C   0  0  0  0  0  0  0  0  0  0  0  0
   -4.0123  -32.6584  -34.3093 C   0  0  0  0  0  0  0  0  0  0  0  0
  -10.9698  -27.4095  -36.5219 C   0  0  0  0  0  0  0  0  0  0  0  0
  -17.0702  -25.5991  -36.3701 C   0  0  0  0  0  0  0  0  0  0  0  0
   -9.8852  -28.1944  -36.1308 C   0  0  0  0  0  0  0  0  0  0  0  0
  -18.4069  -25.5991  -36.7685 C   0  0  0  0  0  0  0  0  0  0  0  0
   -9.8745  -27.1050  -33.9744 C   0  0  0  0  0  0  0  0  0  0  0  0
  -16.4708  -24.4016  -38.3810 C   0  0  0  0  0  0  0  0  0  0  0  0
  -10.9591  -26.3200  -34.3656 C   0  0  0  0  0  0  0  0  0  0  0  0
   -6.4424  -32.5962  -34.6402 C   0  0  0  0  0  0  0  0  0  0  0  0
   -5.1935  -31.9816  -34.6144 C   0  0  0  0  0  0  0  0  0  0  0  0
  -16.1021  -25.0003  -37.1762 C   0  0  0  0  0  0  0  0  0  0  0  0
  -11.5067  -26.4723  -35.6393 C   0  0  0  0  0  0  0  0  0  0  0  0
   -9.3374  -28.0422  -34.8570 C   0  0  0  0  0  0  0  0  0  0  0  0
  -18.7756  -25.0004  -37.9733 C   0  0  0  0  0  0  0  0  0  0  0  0
  -17.8074  -24.4016  -38.7795 C   0  0  0  0  0  0  0  0  0  0  0  0
   -6.7967  -30.5513  -35.1429 C   0  0  0  0  0  0  0  0  0  0  0  0
  -13.8993  -26.0361  -36.4027 C   0  0  0  0  0  0  0  0  0  0  0  0
  -11.5133  -25.3241  -33.3992 C   0  0  0  0  0  0  0  0  0  0  0  0
   -7.4007  -29.2574  -35.5114 C   0  0  0  0  0  0  0  0  0  0  0  0
   -7.4258  -31.6922  -34.9704 N   0  0  0  0  0  0  0  0  0  0  0  0
   -5.4503  -30.6744  -34.9398 N   0  0  0  0  0  0  0  0  0  0  0  0
  -14.7440  -24.9999  -36.7706 N   0  0  0  0  0  0  0  0  0  0  0  0
  -12.5919  -25.6941  -36.0503 N   0  0  0  0  0  0  0  0  0  0  0  0
   -8.2744  -28.8123  -34.4733 O   0  0  0  0  0  0  0  0  0  0  0  0
  -14.5079  -27.5999  -36.5597 S   0  0  0  0  0  0  0  0  0  0  0  0
  -20.4469  -25.0359  -38.4131 Cl  0  0  0  0  0  0  0  0  0  0  0  0
  -18.2016  -23.6459  -40.2836 Cl  0  0  0  0  0  0  0  0  0  0  0  0
   -5.4194  -35.7282  -33.8084 H   0  0  0  0  0  0  0  0  0  0  0  0
   -3.2310  -34.5904  -33.7747 H   0  0  0  0  0  0  0  0  0  0  0  0
   -7.4946  -34.4778  -34.3589 H   0  0  0  0  0  0  0  0  0  0  0  0
   -3.0514  -32.1567  -34.2969 H   0  0  0  0  0  0  0  0  0  0  0  0
  -11.3876  -27.5364  -37.5177 H   0  0  0  0  0  0  0  0  0  0  0  0
  -16.7939  -26.0670  -35.4286 H   0  0  0  0  0  0  0  0  0  0  0  0
   -9.4716  -28.9231  -36.8227 H   0  0  0  0  0  0  0  0  0  0  0  0
  -19.1482  -26.0690  -36.1269 H   0  0  0  0  0  0  0  0  0  0  0  0
   -9.4449  -26.9884  -32.9823 H   0  0  0  0  0  0  0  0  0  0  0  0
  -15.7108  -23.9373  -39.0063 H   0  0  0  0  0  0  0  0  0  0  0  0
  -11.0075  -24.3591  -33.5174 H   0  0  0  0  0  0  0  0  0  0  0  0
  -12.5888  -25.1772  -33.5557 H   0  0  0  0  0  0  0  0  0  0  0  0
  -11.3841  -25.6630  -32.3641 H   0  0  0  0  0  0  0  0  0  0  0  0
   -6.6401  -28.4728  -35.6742 H   0  0  0  0  0  0  0  0  0  0  0  0
   -7.9872  -29.3259  -36.4450 H   0  0  0  0  0  0  0  0  0  0  0  0
   -4.7637  -29.9355  -35.0159 H   0  0  0  0  0  0  0  0  0  0  0  0
  -14.3039  -24.0821  -36.7791 H   0  0  0  0  0  0  0  0  0  0  0  0
  -12.3762  -24.7054  -36.2160 H   0  0  0  0  0  0  0  0  0  0  0  0
  1  2  2  0  0  0  0
  1  3  1  0  0  0  0
  2  4  1  0  0  0  0
  3 12  2  0  0  0  0
  4 13  2  0  0  0  0
  5  7  1  0  0  0  0
  5 15  2  0  0  0  0
  6  8  1  0  0  0  0
  6 14  2  0  0  0  0
  7 16  2  0  0  0  0
  8 17  2  0  0  0  0
  9 11  2  0  0  0  0
  9 16  1  0  0  0  0
 10 14  1  0  0  0  0
 10 18  2  0  0  0  0
 11 15  1  0  0  0  0
 11 21  1  0  0  0  0
 12 13  1  0  0  0  0
 12 23  1  0  0  0  0
 13 24  1  0  0  0  0
 14 25  1  0  0  0  0
 15 26  1  0  0  0  0
 16 27  1  0  0  0  0
 17 18  1  0  0  0  0
 17 29  1  0  0  0  0
 18 30  1  0  0  0  0
 19 22  1  0  0  0  0
 19 23  2  0  0  0  0
 19 24  1  0  0  0  0
 20 25  1  0  0  0  0
 20 26  1  0  0  0  0
 20 28  2  0  0  0  0
 22 27  1  0  0  0  0
  1 31  1  0  0  0  0
  2 32  1  0  0  0  0
  3 33  1  0  0  0  0
  4 34  1  0  0  0  0
  5 35  1  0  0  0  0
  6 36  1  0  0  0  0
  7 37  1  0  0  0  0
  8 38  1  0  0  0  0
  9 39  1  0  0  0  0
 10 40  1  0  0  0  0
 21 41  1  0  0  0  0
 21 42  1  0  0  0  0
 21 43  1  0  0  0  0
 22 44  1  0  0  0  0
 22 45  1  0  0  0  0
 24 46  1  0  0  0  0
 25 47  1  0  0  0  0
 26 48  1  0  0  0  0
M  END
> <Name>
EZ_17

> <SourceTag>
EZ_17

> <Activity_sEH>
223.4

> <Activity_FLAP>
0.6

> <Gold.Version>
5.2

> <Gold.Id.Protein>
6HGV|6HGV_protein|mol2

> <Gold.PLP.Fitness>
74.8305

> <Gold.PLP.PLP>
-71.5090

> <Gold.PLP.part.hbond>
-3.8185

> <Gold.PLP.part.metal>
0.0000

> <Gold.PLP.part.buried>
11.6241

> <Gold.PLP.part.nonpolar>
-81.1406

> <Gold.PLP.part.repulsive>
0.0647

> <Gold.PLP.ligand.clash>
0.0000

> <Gold.PLP.ligand.torsion>
1.6759

> <Gold.PLP.Chemscore.Hbond>
1.3048

> <Gold.PLP.Chemscore.CHOScore>
0.0000

> <Gold.PLP.Chemscore.Metal>
0.0000

> <Gold.Chemscore.Hbonds>
donor molecule, donor type, donor heavy atom, donor atom, acceptor molecule, acceptor atom, score
      L1  H    25    47       P1   853  0.66
      L1  H    26    48       P1   853  0.04
      P1  H  1256  3855       L1    28  0.51
      P1  H  1247  3847       L1    28  0.10

> <Gold.PLP.Chemscore.Internal.Correction>
0.6394

> <Gold.Protein.RotatedTorsions>
[ 3525  925  924  922 ] final -155.30 input   59.99 | X-H torsion
[ 3781 1176 1175 1172 ] final  126.48 input   60.00 | X-H torsion
[ 4531 1957 1955 1953 ] final    2.88 input   60.00 | X-H torsion
[ 3847 1247 1246 1244 ] final  105.94 input   60.00 | X-H torsion
[ 4507 1931 1930 1928 ] final  -26.64 input   60.00 | X-H torsion
[ 3677 1070 1069 1066 ] final  -48.68 input   60.00 | X-H torsion

> <Gold.Protein.ActiveResidues>
 GLY266  PHE267  PRO268  GLU269  MET310  HIS334  ASP335  TRP336  GLY337  GLY338 
 MET339  LEU340  TRP342  TYR343  LEU358  ASN359  THR360  PRO361  ILE363  ALA365 
 MET369  SER370  PRO371  LEU372  GLU373  SER374  ILE375  LYS376  ALA377  ASN378 
 VAL380  PHE381  ASP382  TYR383  GLN384  PHE387  GLN388  LEU397  SER407  LEU408 
 PHE409  ARG410  LEU417  MET419  LEU428  PHE429  PHE459  TRP465  TYR466  ASN468 
 MET469  GLU470  ASN472  TRP473  ALA476  ASP496  PHE497  VAL498  LEU499  MET503 
 HIS524  TRP525 

> <Gold.Protein.RotatedAtoms>
   -2.5101  -30.1428  -29.1312 H   0  0  0  0  0  0  0  0  0  0  0  0  # atno 3525 bound_to 925 
  -12.4666  -23.7723  -31.0675 H   0  0  0  0  0  0  0  0  0  0  0  0  # atno 3677 bound_to 1070
   -9.7545  -37.0212  -32.3838 H   0  0  0  0  0  0  0  0  0  0  0  0  # atno 3781 bound_to 1176
  -14.3644  -28.4911  -37.6698 H   0  0  0  0  0  0  0  0  0  0  0  0  # atno 3847 bound_to 1247
  -13.5064  -25.3783  -39.4330 H   0  0  0  0  0  0  0  0  0  0  0  0  # atno 4507 bound_to 1931
   -2.8873  -32.5363  -36.6839 H   0  0  0  0  0  0  0  0  0  0  0  0  # atno 4531 bound_to 1957
   -2.4568  -30.0202  -30.7530 LP  0  0  0  0  0  0  0  0  0  0  0  0  # atno 5201 bound_to 925 
   -3.7790  -29.5185  -29.9364 LP  0  0  0  0  0  0  0  0  0  0  0  0  # atno 5202 bound_to 925 
  -10.8266  -37.2858  -33.5791 LP  0  0  0  0  0  0  0  0  0  0  0  0  # atno 5205 bound_to 1176
   -9.5317  -36.3250  -33.8377 LP  0  0  0  0  0  0  0  0  0  0  0  0  # atno 5206 bound_to 1176
   -1.3102  -32.8007  -36.9858 LP  0  0  0  0  0  0  0  0  0  0  0  0  # atno 5213 bound_to 1957
   -2.3339  -34.0612  -36.8130 LP  0  0  0  0  0  0  0  0  0  0  0  0  # atno 5214 bound_to 1957
  -15.8691  -28.5519  -37.0532 LP  0  0  0  0  0  0  0  0  0  0  0  0  # atno 5227 bound_to 1247
  -15.3368  -27.1912  -37.7826 LP  0  0  0  0  0  0  0  0  0  0  0  0  # atno 5228 bound_to 1247
  -13.2365  -24.1391  -40.4526 LP  0  0  0  0  0  0  0  0  0  0  0  0  # atno 5245 bound_to 1931
  -12.4488  -24.2111  -39.0240 LP  0  0  0  0  0  0  0  0  0  0  0  0  # atno 5246 bound_to 1931
  -11.0908  -22.9260  -31.2649 LP  0  0  0  0  0  0  0  0  0  0  0  0  # atno 5265 bound_to 1070
  -12.2930  -22.3299  -30.3344 LP  0  0  0  0  0  0  0  0  0  0  0  0  # atno 5266 bound_to 1070

$$$$
EZ_17|Lisa_paper2_min|sdf|4|dock6
  -GOLD-  10202014273D 1   1.00000     0.00000

 48 51  0  0  0  0  0  0  0  0  1 V2000
   -3.3002  -32.4599  -33.7174 C   0  0  0  0  0  0  0  0  0  0  0  0
   -3.9302  -33.6342  -34.1359 C   0  0  0  0  0  0  0  0  0  0  0  0
   -3.9431  -31.2200  -33.8213 C   0  0  0  0  0  0  0  0  0  0  0  0
   -5.2220  -33.6135  -34.6721 C   0  0  0  0  0  0  0  0  0  0  0  0
  -11.3437  -27.2024  -36.5164 C   0  0  0  0  0  0  0  0  0  0  0  0
  -16.0329  -23.9801  -38.8562 C   0  0  0  0  0  0  0  0  0  0  0  0
  -10.2323  -27.9991  -36.2413 C   0  0  0  0  0  0  0  0  0  0  0  0
  -17.1778  -23.8444  -39.6412 C   0  0  0  0  0  0  0  0  0  0  0  0
  -10.0993  -27.0481  -34.0244 C   0  0  0  0  0  0  0  0  0  0  0  0
  -17.3469  -25.0284  -37.1208 C   0  0  0  0  0  0  0  0  0  0  0  0
  -11.2107  -26.2513  -34.2995 C   0  0  0  0  0  0  0  0  0  0  0  0
   -5.2412  -31.1805  -34.3577 C   0  0  0  0  0  0  0  0  0  0  0  0
   -5.8428  -32.3676  -34.7661 C   0  0  0  0  0  0  0  0  0  0  0  0
  -16.1173  -24.5722  -37.5960 C   0  0  0  0  0  0  0  0  0  0  0  0
  -11.8328  -26.3285  -35.5455 C   0  0  0  0  0  0  0  0  0  0  0  0
   -9.6101  -27.9221  -34.9953 C   0  0  0  0  0  0  0  0  0  0  0  0
  -18.4074  -24.3006  -39.1660 C   0  0  0  0  0  0  0  0  0  0  0  0
  -18.4918  -24.8926  -37.9058 C   0  0  0  0  0  0  0  0  0  0  0  0
   -7.1695  -30.6268  -35.0887 C   0  0  0  0  0  0  0  0  0  0  0  0
  -13.9859  -25.7028  -36.7580 C   0  0  0  0  0  0  0  0  0  0  0  0
  -11.7125  -25.3243  -33.2404 C   0  0  0  0  0  0  0  0  0  0  0  0
   -8.3841  -29.8970  -35.4977 C   0  0  0  0  0  0  0  0  0  0  0  0
   -6.0803  -30.1100  -34.5657 N   0  0  0  0  0  0  0  0  0  0  0  0
   -7.0751  -31.9834  -35.2291 N   0  0  0  0  0  0  0  0  0  0  0  0
  -14.9535  -24.7105  -36.7990 N   0  0  0  0  0  0  0  0  0  0  0  0
  -12.9458  -25.5373  -35.8408 N   0  0  0  0  0  0  0  0  0  0  0  0
   -8.5208  -28.7037  -34.7254 O   0  0  0  0  0  0  0  0  0  0  0  0
  -14.1022  -26.9207  -37.9171 S   0  0  0  0  0  0  0  0  0  0  0  0
  -19.7898  -24.1010  -40.1844 Cl  0  0  0  0  0  0  0  0  0  0  0  0
  -19.9865  -25.4753  -37.2613 Cl  0  0  0  0  0  0  0  0  0  0  0  0
   -2.2958  -32.5083  -33.3043 H   0  0  0  0  0  0  0  0  0  0  0  0
   -3.4065  -34.5827  -34.0448 H   0  0  0  0  0  0  0  0  0  0  0  0
   -3.4451  -30.3136  -33.4922 H   0  0  0  0  0  0  0  0  0  0  0  0
   -5.7127  -34.5241  -34.9964 H   0  0  0  0  0  0  0  0  0  0  0  0
  -11.8197  -27.2705  -37.4916 H   0  0  0  0  0  0  0  0  0  0  0  0
  -15.0794  -23.6226  -39.2366 H   0  0  0  0  0  0  0  0  0  0  0  0
   -9.8563  -28.6783  -37.0017 H   0  0  0  0  0  0  0  0  0  0  0  0
  -17.0930  -23.3818  -40.6214 H   0  0  0  0  0  0  0  0  0  0  0  0
   -9.6118  -26.9899  -33.0542 H   0  0  0  0  0  0  0  0  0  0  0  0
  -17.4067  -25.4882  -36.1364 H   0  0  0  0  0  0  0  0  0  0  0  0
  -11.2210  -24.3486  -33.3267 H   0  0  0  0  0  0  0  0  0  0  0  0
  -12.7964  -25.1791  -33.3230 H   0  0  0  0  0  0  0  0  0  0  0  0
  -11.5190  -25.7266  -32.2385 H   0  0  0  0  0  0  0  0  0  0  0  0
   -8.3594  -29.6098  -36.5642 H   0  0  0  0  0  0  0  0  0  0  0  0
   -9.2974  -30.5019  -35.3556 H   0  0  0  0  0  0  0  0  0  0  0  0
   -7.7857  -32.5968  -35.6059 H   0  0  0  0  0  0  0  0  0  0  0  0
  -14.7827  -23.9310  -36.1670 H   0  0  0  0  0  0  0  0  0  0  0  0
  -12.9635  -24.6249  -35.3730 H   0  0  0  0  0  0  0  0  0  0  0  0
  1  2  2  0  0  0  0
  1  3  1  0  0  0  0
  2  4  1  0  0  0  0
  3 12  2  0  0  0  0
  4 13  2  0  0  0  0
  5  7  1  0  0  0  0
  5 15  2  0  0  0  0
  6  8  1  0  0  0  0
  6 14  2  0  0  0  0
  7 16  2  0  0  0  0
  8 17  2  0  0  0  0
  9 11  2  0  0  0  0
  9 16  1  0  0  0  0
 10 14  1  0  0  0  0
 10 18  2  0  0  0  0
 11 15  1  0  0  0  0
 11 21  1  0  0  0  0
 12 13  1  0  0  0  0
 12 23  1  0  0  0  0
 13 24  1  0  0  0  0
 14 25  1  0  0  0  0
 15 26  1  0  0  0  0
 16 27  1  0  0  0  0
 17 18  1  0  0  0  0
 17 29  1  0  0  0  0
 18 30  1  0  0  0  0
 19 22  1  0  0  0  0
 19 23  2  0  0  0  0
 19 24  1  0  0  0  0
 20 25  1  0  0  0  0
 20 26  1  0  0  0  0
 20 28  2  0  0  0  0
 22 27  1  0  0  0  0
  1 31  1  0  0  0  0
  2 32  1  0  0  0  0
  3 33  1  0  0  0  0
  4 34  1  0  0  0  0
  5 35  1  0  0  0  0
  6 36  1  0  0  0  0
  7 37  1  0  0  0  0
  8 38  1  0  0  0  0
  9 39  1  0  0  0  0
 10 40  1  0  0  0  0
 21 41  1  0  0  0  0
 21 42  1  0  0  0  0
 21 43  1  0  0  0  0
 22 44  1  0  0  0  0
 22 45  1  0  0  0  0
 24 46  1  0  0  0  0
 25 47  1  0  0  0  0
 26 48  1  0  0  0  0
M  END
> <Name>
EZ_17

> <SourceTag>
EZ_17

> <Activity_sEH>
223.4

> <Activity_FLAP>
0.6

> <Gold.Version>
5.2

> <Gold.Id.Protein>
6HGV|6HGV_protein|mol2

> <Gold.PLP.Fitness>
71.6224

> <Gold.PLP.PLP>
-65.2177

> <Gold.PLP.part.hbond>
-3.1121

> <Gold.PLP.part.metal>
0.0000

> <Gold.PLP.part.buried>
13.5252

> <Gold.PLP.part.nonpolar>
-76.0626

> <Gold.PLP.part.repulsive>
0.0393

> <Gold.PLP.ligand.clash>
0.0000

> <Gold.PLP.ligand.torsion>
1.5758

> <Gold.PLP.Chemscore.Hbond>
2.1979

> <Gold.PLP.Chemscore.CHOScore>
0.0000

> <Gold.PLP.Chemscore.Metal>
0.0000

> <Gold.Chemscore.Hbonds>
donor molecule, donor type, donor heavy atom, donor atom, acceptor molecule, acceptor atom, score
      L1  H    25    47       P1   853  0.88
      L1  H    26    48       P1   853  0.69
      P1  H  1256  3855       L1    28  0.37
      P1  H  1247  3847       L1    28  0.25
      P1  H  1931  4507       L1    28  0.01

> <Gold.PLP.Chemscore.Internal.Correction>
0.6394

> <Gold.Protein.RotatedTorsions>
[ 3525  925  924  922 ] final -133.27 input   59.99 | X-H torsion
[ 3781 1176 1175 1172 ] final   22.98 input   60.00 | X-H torsion
[ 4531 1957 1955 1953 ] final   71.95 input   60.00 | X-H torsion
[ 3847 1247 1246 1244 ] final  135.63 input   60.00 | X-H torsion
[ 4507 1931 1930 1928 ] final  -55.68 input   60.00 | X-H torsion
[ 3677 1070 1069 1066 ] final -155.15 input   60.00 | X-H torsion

> <Gold.Protein.ActiveResidues>
 GLY266  PHE267  PRO268  GLU269  MET310  HIS334  ASP335  TRP336  GLY337  GLY338 
 MET339  LEU340  TRP342  TYR343  LEU358  ASN359  THR360  PRO361  ILE363  ALA365 
 MET369  SER370  PRO371  LEU372  GLU373  SER374  ILE375  LYS376  ALA377  ASN378 
 VAL380  PHE381  ASP382  TYR383  GLN384  PHE387  GLN388  LEU397  SER407  LEU408 
 PHE409  ARG410  LEU417  MET419  LEU428  PHE429  PHE459  TRP465  TYR466  ASN468 
 MET469  GLU470  ASN472  TRP473  ALA476  ASP496  PHE497  VAL498  LEU499  MET503 
 HIS524  TRP525 

> <Gold.Protein.RotatedAtoms>
   -2.8239  -30.0167  -29.0145 H   0  0  0  0  0  0  0  0  0  0  0  0  # atno 3525 bound_to 925 
  -11.1434  -23.1239  -31.3488 H   0  0  0  0  0  0  0  0  0  0  0  0  # atno 3677 bound_to 1070
  -10.8236  -37.3813  -33.3269 H   0  0  0  0  0  0  0  0  0  0  0  0  # atno 3781 bound_to 1176
  -14.3214  -28.0508  -37.8551 H   0  0  0  0  0  0  0  0  0  0  0  0  # atno 3847 bound_to 1247
  -13.6700  -25.2577  -39.8562 H   0  0  0  0  0  0  0  0  0  0  0  0  # atno 4507 bound_to 1931
   -2.9803  -33.5938  -36.6845 H   0  0  0  0  0  0  0  0  0  0  0  0  # atno 4531 bound_to 1957
   -2.2150  -30.1471  -30.5180 LP  0  0  0  0  0  0  0  0  0  0  0  0  # atno 5201 bound_to 925 
   -3.7047  -29.5186  -30.2889 LP  0  0  0  0  0  0  0  0  0  0  0  0  # atno 5202 bound_to 925 
   -9.7284  -36.3913  -34.0112 LP  0  0  0  0  0  0  0  0  0  0  0  0  # atno 5205 bound_to 1176
   -9.5531  -36.8569  -32.4558 LP  0  0  0  0  0  0  0  0  0  0  0  0  # atno 5206 bound_to 1176
   -2.1693  -32.1887  -36.8119 LP  0  0  0  0  0  0  0  0  0  0  0  0  # atno 5213 bound_to 1957
   -1.3812  -33.6083  -36.9863 LP  0  0  0  0  0  0  0  0  0  0  0  0  # atno 5214 bound_to 1957
  -15.4997  -28.8621  -37.0795 LP  0  0  0  0  0  0  0  0  0  0  0  0  # atno 5227 bound_to 1247
  -15.7494  -27.3245  -37.5697 LP  0  0  0  0  0  0  0  0  0  0  0  0  # atno 5228 bound_to 1247
  -12.9173  -23.8659  -40.2360 LP  0  0  0  0  0  0  0  0  0  0  0  0  # atno 5245 bound_to 1931
  -12.6033  -24.6057  -38.8145 LP  0  0  0  0  0  0  0  0  0  0  0  0  # atno 5246 bound_to 1931
  -12.0972  -22.2339  -30.3760 LP  0  0  0  0  0  0  0  0  0  0  0  0  # atno 5265 bound_to 1070
  -12.6191  -23.6748  -30.9400 LP  0  0  0  0  0  0  0  0  0  0  0  0  # atno 5266 bound_to 1070

$$$$
EZ_175a|Lisa_paper2_min|sdf|5|dock8
  -GOLD-  10202014303D 1   1.00000     0.00000

 48 51  0  0  0  0  0  0  0  0  1 V2000
   -4.5392  -30.9291  -35.5339 C   0  0  0  0  0  0  0  0  0  0  0  0
   -4.9949  -32.2491  -35.5094 C   0  0  0  0  0  0  0  0  0  0  0  0
   -5.3860  -29.8670  -35.1926 C   0  0  0  0  0  0  0  0  0  0  0  0
   -6.3097  -32.5564  -35.1437 C   0  0  0  0  0  0  0  0  0  0  0  0
  -12.8932  -27.3622  -35.7460 C   0  0  0  0  0  0  0  0  0  0  0  0
  -16.7589  -23.3892  -39.5747 C   0  0  0  0  0  0  0  0  0  0  0  0
  -12.0708  -28.1087  -34.9023 C   0  0  0  0  0  0  0  0  0  0  0  0
  -18.0597  -23.1407  -40.0127 C   0  0  0  0  0  0  0  0  0  0  0  0
  -11.4193  -25.4634  -35.5029 C   0  0  0  0  0  0  0  0  0  0  0  0
  -17.6264  -24.7164  -37.7518 C   0  0  0  0  0  0  0  0  0  0  0  0
  -10.5968  -26.2098  -34.6591 C   0  0  0  0  0  0  0  0  0  0  0  0
   -6.7102  -30.1574  -34.8231 C   0  0  0  0  0  0  0  0  0  0  0  0
   -7.1352  -31.4830  -34.8079 C   0  0  0  0  0  0  0  0  0  0  0  0
  -12.5675  -26.0395  -36.0463 C   0  0  0  0  0  0  0  0  0  0  0  0
  -16.5422  -24.1771  -38.4442 C   0  0  0  0  0  0  0  0  0  0  0  0
  -10.9226  -27.5325  -34.3587 C   0  0  0  0  0  0  0  0  0  0  0  0
  -19.1438  -23.6799  -39.3202 C   0  0  0  0  0  0  0  0  0  0  0  0
  -18.9271  -24.4678  -38.1898 C   0  0  0  0  0  0  0  0  0  0  0  0
   -8.7547  -30.0994  -34.2096 C   0  0  0  0  0  0  0  0  0  0  0  0
  -14.7973  -25.3604  -37.0392 C   0  0  0  0  0  0  0  0  0  0  0  0
   -9.3717  -25.5772  -34.0863 C   0  0  0  0  0  0  0  0  0  0  0  0
  -10.1014  -29.6862  -33.7730 C   0  0  0  0  0  0  0  0  0  0  0  0
   -7.7296  -29.3125  -34.4485 N   0  0  0  0  0  0  0  0  0  0  0  0
   -8.4464  -31.4158  -34.4119 N   0  0  0  0  0  0  0  0  0  0  0  0
  -13.3904  -25.2933  -36.8904 N   0  0  0  0  0  0  0  0  0  0  0  0
  -15.2226  -24.4296  -38.0007 N   0  0  0  0  0  0  0  0  0  0  0  0
  -15.5300  -26.1221  -36.4163 O   0  0  0  0  0  0  0  0  0  0  0  0
  -10.1273  -28.2787  -33.5335 O   0  0  0  0  0  0  0  0  0  0  0  0
  -20.7310  -23.3332  -39.9109 Cl  0  0  0  0  0  0  0  0  0  0  0  0
  -20.2291  -25.1619  -37.2886 Cl  0  0  0  0  0  0  0  0  0  0  0  0
   -3.5115  -30.7221  -35.8219 H   0  0  0  0  0  0  0  0  0  0  0  0
   -4.3158  -33.0538  -35.7807 H   0  0  0  0  0  0  0  0  0  0  0  0
   -5.0215  -28.8450  -35.2141 H   0  0  0  0  0  0  0  0  0  0  0  0
   -6.6648  -33.5804  -35.1231 H   0  0  0  0  0  0  0  0  0  0  0  0
  -13.7855  -27.8216  -36.1638 H   0  0  0  0  0  0  0  0  0  0  0  0
  -15.9212  -22.9655  -40.1225 H   0  0  0  0  0  0  0  0  0  0  0  0
  -12.3302  -29.1386  -34.6724 H   0  0  0  0  0  0  0  0  0  0  0  0
  -18.2098  -22.5256  -40.8966 H   0  0  0  0  0  0  0  0  0  0  0  0
  -11.1640  -24.4320  -35.7362 H   0  0  0  0  0  0  0  0  0  0  0  0
  -17.4511  -25.3292  -36.8698 H   0  0  0  0  0  0  0  0  0  0  0  0
   -9.6039  -25.0976  -33.1282 H   0  0  0  0  0  0  0  0  0  0  0  0
   -8.5811  -26.3201  -33.9226 H   0  0  0  0  0  0  0  0  0  0  0  0
   -8.9616  -24.8197  -34.7659 H   0  0  0  0  0  0  0  0  0  0  0  0
  -10.8740  -29.9160  -34.5286 H   0  0  0  0  0  0  0  0  0  0  0  0
  -10.4091  -30.1964  -32.8428 H   0  0  0  0  0  0  0  0  0  0  0  0
   -9.0712  -32.2022  -34.2911 H   0  0  0  0  0  0  0  0  0  0  0  0
  -12.9131  -24.6047  -37.4817 H   0  0  0  0  0  0  0  0  0  0  0  0
  -14.4980  -23.8647  -38.4361 H   0  0  0  0  0  0  0  0  0  0  0  0
  1  2  2  0  0  0  0
  1  3  1  0  0  0  0
  2  4  1  0  0  0  0
  3 12  2  0  0  0  0
  4 13  2  0  0  0  0
  5  7  2  0  0  0  0
  5 14  1  0  0  0  0
  6  8  1  0  0  0  0
  6 15  2  0  0  0  0
  7 16  1  0  0  0  0
  8 17  2  0  0  0  0
  9 11  1  0  0  0  0
  9 14  2  0  0  0  0
 10 15  1  0  0  0  0
 10 18  2  0  0  0  0
 11 16  2  0  0  0  0
 11 21  1  0  0  0  0
 12 13  1  0  0  0  0
 12 23  1  0  0  0  0
 13 24  1  0  0  0  0
 14 25  1  0  0  0  0
 15 26  1  0  0  0  0
 16 28  1  0  0  0  0
 17 18  1  0  0  0  0
 17 29  1  0  0  0  0
 18 30  1  0  0  0  0
 19 22  1  0  0  0  0
 19 23  2  0  0  0  0
 19 24  1  0  0  0  0
 20 25  1  0  0  0  0
 20 26  1  0  0  0  0
 20 27  2  0  0  0  0
 22 28  1  0  0  0  0
  1 31  1  0  0  0  0
  2 32  1  0  0  0  0
  3 33  1  0  0  0  0
  4 34  1  0  0  0  0
  5 35  1  0  0  0  0
  6 36  1  0  0  0  0
  7 37  1  0  0  0  0
  8 38  1  0  0  0  0
  9 39  1  0  0  0  0
 10 40  1  0  0  0  0
 21 41  1  0  0  0  0
 21 42  1  0  0  0  0
 21 43  1  0  0  0  0
 22 44  1  0  0  0  0
 22 45  1  0  0  0  0
 24 46  1  0  0  0  0
 25 47  1  0  0  0  0
 26 48  1  0  0  0  0
M  END
> <Name>
EZ_175a

> <SourceTag>
EZ_175a

> <Activity_sEH>
4.9

> <Activity_FLAP>
0.4

> <Gold.Version>
5.2

> <Gold.Id.Protein>
6HGV|6HGV_protein|mol2

> <Gold.PLP.Fitness>
91.2699

> <Gold.PLP.PLP>
-88.3673

> <Gold.PLP.part.hbond>
-8.0135

> <Gold.PLP.part.metal>
0.0000

> <Gold.PLP.part.buried>
3.1892

> <Gold.PLP.part.nonpolar>
-84.6028

> <Gold.PLP.part.repulsive>
0.0678

> <Gold.PLP.ligand.clash>
0.0000

> <Gold.PLP.ligand.torsion>
1.0192

> <Gold.PLP.Chemscore.Hbond>
1.0614

> <Gold.PLP.Chemscore.CHOScore>
0.0000

> <Gold.PLP.Chemscore.Metal>
0.0000

> <Gold.Chemscore.Hbonds>
donor molecule, donor type, donor heavy atom, donor atom, acceptor molecule, acceptor atom, score
      L1  H    25    47       P1  1931  0.51
      P1  H  1247  3847       L1    27  0.55

> <Gold.PLP.Chemscore.Internal.Correction>
0.3768

> <Gold.Protein.RotatedTorsions>
[ 3525  925  924  922 ] final   83.51 input   59.99 | X-H torsion
[ 3781 1176 1175 1172 ] final  121.08 input   60.00 | X-H torsion
[ 4531 1957 1955 1953 ] final  -12.48 input   60.00 | X-H torsion
[ 3847 1247 1246 1244 ] final  -74.40 input   60.00 | X-H torsion
[ 4507 1931 1930 1928 ] final -116.60 input   60.00 | X-H torsion
[ 3677 1070 1069 1066 ] final  -76.42 input   60.00 | X-H torsion

> <Gold.Protein.ActiveResidues>
 GLY266  PHE267  PRO268  GLU269  MET310  HIS334  ASP335  TRP336  GLY337  GLY338 
 MET339  LEU340  TRP342  TYR343  LEU358  ASN359  THR360  PRO361  ILE363  ALA365 
 MET369  SER370  PRO371  LEU372  GLU373  SER374  ILE375  LYS376  ALA377  ASN378 
 VAL380  PHE381  ASP382  TYR383  GLN384  PHE387  GLN388  LEU397  SER407  LEU408 
 PHE409  ARG410  LEU417  MET419  LEU428  PHE429  PHE459  TRP465  TYR466  ASN468 
 MET469  GLU470  ASN472  TRP473  ALA476  ASP496  PHE497  VAL498  LEU499  MET503 
 HIS524  TRP525 

> <Gold.Protein.RotatedAtoms>
   -2.4743  -30.0097  -30.7566 H   0  0  0  0  0  0  0  0  0  0  0  0  # atno 3525 bound_to 925 
  -12.0864  -23.8440  -31.2952 H   0  0  0  0  0  0  0  0  0  0  0  0  # atno 3677 bound_to 1070
   -9.8256  -37.0724  -32.3738 H   0  0  0  0  0  0  0  0  0  0  0  0  # atno 3781 bound_to 1176
  -16.0112  -27.6634  -37.3401 H   0  0  0  0  0  0  0  0  0  0  0  0  # atno 3847 bound_to 1247
  -13.5157  -24.5381  -40.4556 H   0  0  0  0  0  0  0  0  0  0  0  0  # atno 4507 bound_to 1931
   -2.7065  -32.3661  -36.7153 H   0  0  0  0  0  0  0  0  0  0  0  0  # atno 4531 bound_to 1957
   -3.7794  -29.5201  -29.9168 LP  0  0  0  0  0  0  0  0  0  0  0  0  # atno 5201 bound_to 925 
   -2.4924  -30.1526  -29.1357 LP  0  0  0  0  0  0  0  0  0  0  0  0  # atno 5202 bound_to 925 
  -10.8110  -37.2462  -33.6570 LP  0  0  0  0  0  0  0  0  0  0  0  0  # atno 5205 bound_to 1176
   -9.4756  -36.3131  -33.7698 LP  0  0  0  0  0  0  0  0  0  0  0  0  # atno 5206 bound_to 1176
   -1.2559  -33.0464  -37.0004 LP  0  0  0  0  0  0  0  0  0  0  0  0  # atno 5213 bound_to 1957
   -2.5703  -33.9869  -36.7668 LP  0  0  0  0  0  0  0  0  0  0  0  0  # atno 5214 bound_to 1957
  -14.5033  -27.6102  -37.9495 LP  0  0  0  0  0  0  0  0  0  0  0  0  # atno 5227 bound_to 1247
  -15.0441  -28.9665  -37.2184 LP  0  0  0  0  0  0  0  0  0  0  0  0  # atno 5228 bound_to 1247
  -12.4522  -23.9009  -39.4016 LP  0  0  0  0  0  0  0  0  0  0  0  0  # atno 5245 bound_to 1931
  -13.2237  -25.2954  -39.0452 LP  0  0  0  0  0  0  0  0  0  0  0  0  # atno 5246 bound_to 1931
  -11.1419  -22.5469  -31.0239 LP  0  0  0  0  0  0  0  0  0  0  0  0  # atno 5265 bound_to 1070
  -12.6248  -22.6368  -30.3460 LP  0  0  0  0  0  0  0  0  0  0  0  0  # atno 5266 bound_to 1070

$$$$
EZ_175a|Lisa_paper2_min|sdf|5|dock10
  -GOLD-  10202014303D 1   1.00000     0.00000

 48 51  0  0  0  0  0  0  0  0  1 V2000
   -4.6468  -30.9531  -35.5414 C   0  0  0  0  0  0  0  0  0  0  0  0
   -5.1002  -32.2740  -35.5204 C   0  0  0  0  0  0  0  0  0  0  0  0
   -5.4904  -29.8950  -35.1803 C   0  0  0  0  0  0  0  0  0  0  0  0
   -6.4093  -32.5862  -35.1387 C   0  0  0  0  0  0  0  0  0  0  0  0
  -12.9054  -27.4619  -35.8079 C   0  0  0  0  0  0  0  0  0  0  0  0
  -16.7349  -23.4496  -39.6652 C   0  0  0  0  0  0  0  0  0  0  0  0
  -12.1019  -28.1931  -34.9332 C   0  0  0  0  0  0  0  0  0  0  0  0
  -18.0305  -23.1744  -40.1027 C   0  0  0  0  0  0  0  0  0  0  0  0
  -11.5001  -25.5244  -35.4793 C   0  0  0  0  0  0  0  0  0  0  0  0
  -17.6287  -24.7622  -37.8444 C   0  0  0  0  0  0  0  0  0  0  0  0
  -10.6965  -26.2556  -34.6045 C   0  0  0  0  0  0  0  0  0  0  0  0
   -6.8089  -30.1903  -34.7945 C   0  0  0  0  0  0  0  0  0  0  0  0
   -7.2316  -31.5166  -34.7834 C   0  0  0  0  0  0  0  0  0  0  0  0
  -12.6045  -26.1275  -36.0810 C   0  0  0  0  0  0  0  0  0  0  0  0
  -16.5340  -24.2436  -38.5360 C   0  0  0  0  0  0  0  0  0  0  0  0
  -10.9975  -27.5900  -34.3314 C   0  0  0  0  0  0  0  0  0  0  0  0
  -19.1252  -23.6929  -39.4110 C   0  0  0  0  0  0  0  0  0  0  0  0
  -18.9242  -24.4868  -38.2818 C   0  0  0  0  0  0  0  0  0  0  0  0
   -8.8447  -30.1402  -34.1521 C   0  0  0  0  0  0  0  0  0  0  0  0
  -14.8186  -25.4163  -37.0865 C   0  0  0  0  0  0  0  0  0  0  0  0
   -9.5182  -25.5942  -33.9694 C   0  0  0  0  0  0  0  0  0  0  0  0
  -10.1858  -29.7325  -33.6936 C   0  0  0  0  0  0  0  0  0  0  0  0
   -7.8242  -29.3498  -34.3993 N   0  0  0  0  0  0  0  0  0  0  0  0
   -8.5372  -31.4546  -34.3686 N   0  0  0  0  0  0  0  0  0  0  0  0
  -13.4084  -25.3965  -36.9561 N   0  0  0  0  0  0  0  0  0  0  0  0
  -15.2197  -24.5232  -38.0930 N   0  0  0  0  0  0  0  0  0  0  0  0
  -15.5724  -26.1137  -36.4152 O   0  0  0  0  0  0  0  0  0  0  0  0
  -10.2202  -28.3216  -33.4764 O   0  0  0  0  0  0  0  0  0  0  0  0
  -20.7051  -23.3134  -40.0009 Cl  0  0  0  0  0  0  0  0  0  0  0  0
  -20.2397  -25.1561  -37.3816 Cl  0  0  0  0  0  0  0  0  0  0  0  0
   -3.6236  -30.7423  -35.8422 H   0  0  0  0  0  0  0  0  0  0  0  0
   -4.4237  -33.0755  -35.8072 H   0  0  0  0  0  0  0  0  0  0  0  0
   -5.1279  -28.8722  -35.1992 H   0  0  0  0  0  0  0  0  0  0  0  0
   -6.7625  -33.6109  -35.1208 H   0  0  0  0  0  0  0  0  0  0  0  0
  -13.7636  -27.9422  -36.2711 H   0  0  0  0  0  0  0  0  0  0  0  0
  -15.8889  -23.0418  -40.2124 H   0  0  0  0  0  0  0  0  0  0  0  0
  -12.3419  -29.2323  -34.7249 H   0  0  0  0  0  0  0  0  0  0  0  0
  -18.1682  -22.5549  -40.9855 H   0  0  0  0  0  0  0  0  0  0  0  0
  -11.2641  -24.4839  -35.6913 H   0  0  0  0  0  0  0  0  0  0  0  0
  -17.4656  -25.3797  -36.9634 H   0  0  0  0  0  0  0  0  0  0  0  0
   -9.8086  -25.1311  -33.0190 H   0  0  0  0  0  0  0  0  0  0  0  0
   -8.7150  -26.3158  -33.7753 H   0  0  0  0  0  0  0  0  0  0  0  0
   -9.0990  -24.8184  -34.6223 H   0  0  0  0  0  0  0  0  0  0  0  0
  -10.9719  -29.9818  -34.4287 H   0  0  0  0  0  0  0  0  0  0  0  0
  -10.4688  -30.2302  -32.7489 H   0  0  0  0  0  0  0  0  0  0  0  0
   -9.1591  -32.2428  -34.2449 H   0  0  0  0  0  0  0  0  0  0  0  0
  -12.9124  -24.7603  -37.5892 H   0  0  0  0  0  0  0  0  0  0  0  0
  -14.4792  -24.0116  -38.5663 H   0  0  0  0  0  0  0  0  0  0  0  0
  1  2  2  0  0  0  0
  1  3  1  0  0  0  0
  2  4  1  0  0  0  0
  3 12  2  0  0  0  0
  4 13  2  0  0  0  0
  5  7  2  0  0  0  0
  5 14  1  0  0  0  0
  6  8  1  0  0  0  0
  6 15  2  0  0  0  0
  7 16  1  0  0  0  0
  8 17  2  0  0  0  0
  9 11  1  0  0  0  0
  9 14  2  0  0  0  0
 10 15  1  0  0  0  0
 10 18  2  0  0  0  0
 11 16  2  0  0  0  0
 11 21  1  0  0  0  0
 12 13  1  0  0  0  0
 12 23  1  0  0  0  0
 13 24  1  0  0  0  0
 14 25  1  0  0  0  0
 15 26  1  0  0  0  0
 16 28  1  0  0  0  0
 17 18  1  0  0  0  0
 17 29  1  0  0  0  0
 18 30  1  0  0  0  0
 19 22  1  0  0  0  0
 19 23  2  0  0  0  0
 19 24  1  0  0  0  0
 20 25  1  0  0  0  0
 20 26  1  0  0  0  0
 20 27  2  0  0  0  0
 22 28  1  0  0  0  0
  1 31  1  0  0  0  0
  2 32  1  0  0  0  0
  3 33  1  0  0  0  0
  4 34  1  0  0  0  0
  5 35  1  0  0  0  0
  6 36  1  0  0  0  0
  7 37  1  0  0  0  0
  8 38  1  0  0  0  0
  9 39  1  0  0  0  0
 10 40  1  0  0  0  0
 21 41  1  0  0  0  0
 21 42  1  0  0  0  0
 21 43  1  0  0  0  0
 22 44  1  0  0  0  0
 22 45  1  0  0  0  0
 24 46  1  0  0  0  0
 25 47  1  0  0  0  0
 26 48  1  0  0  0  0
M  END
> <Name>
EZ_175a

> <SourceTag>
EZ_175a

> <Activity_sEH>
4.9

> <Activity_FLAP>
0.4

> <Gold.Version>
5.2

> <Gold.Id.Protein>
6HGV|6HGV_protein|mol2

> <Gold.PLP.Fitness>
91.0767

> <Gold.PLP.PLP>
-88.1445

> <Gold.PLP.part.hbond>
-7.3829

> <Gold.PLP.part.metal>
0.0000

> <Gold.PLP.part.buried>
4.0579

> <Gold.PLP.part.nonpolar>
-83.9677

> <Gold.PLP.part.repulsive>
0.0709

> <Gold.PLP.ligand.clash>
0.0000

> <Gold.PLP.ligand.torsion>
1.0560

> <Gold.PLP.Chemscore.Hbond>
1.0813

> <Gold.PLP.Chemscore.CHOScore>
0.0000

> <Gold.PLP.Chemscore.Metal>
0.0000

> <Gold.Chemscore.Hbonds>
donor molecule, donor type, donor heavy atom, donor atom, acceptor molecule, acceptor atom, score
      L1  H    25    47       P1  1931  0.63
      P1  H  1247  3847       L1    27  0.45

> <Gold.PLP.Chemscore.Internal.Correction>
0.3768

> <Gold.Protein.RotatedTorsions>
[ 3525  925  924  922 ] final -138.35 input   59.99 | X-H torsion
[ 3781 1176 1175 1172 ] final -101.21 input   60.00 | X-H torsion
[ 4531 1957 1955 1953 ] final  169.62 input   60.00 | X-H torsion
[ 3847 1247 1246 1244 ] final  -80.78 input   60.00 | X-H torsion
[ 4507 1931 1930 1928 ] final -151.36 input   60.00 | X-H torsion
[ 3677 1070 1069 1066 ] final   67.37 input   60.00 | X-H torsion

> <Gold.Protein.ActiveResidues>
 GLY266  PHE267  PRO268  GLU269  MET310  HIS334  ASP335  TRP336  GLY337  GLY338 
 MET339  LEU340  TRP342  TYR343  LEU358  ASN359  THR360  PRO361  ILE363  ALA365 
 MET369  SER370  PRO371  LEU372  GLU373  SER374  ILE375  LYS376  ALA377  ASN378 
 VAL380  PHE381  ASP382  TYR383  GLN384  PHE387  GLN388  LEU397  SER407  LEU408 
 PHE409  ARG410  LEU417  MET419  LEU428  PHE429  PHE459  TRP465  TYR466  ASN468 
 MET469  GLU470  ASN472  TRP473  ALA476  ASP496  PHE497  VAL498  LEU499  MET503 
 HIS524  TRP525 

> <Gold.Protein.RotatedAtoms>
   -2.7486  -30.0481  -29.0298 H   0  0  0  0  0  0  0  0  0  0  0  0  # atno 3525 bound_to 925 
  -12.3435  -22.3709  -30.3300 H   0  0  0  0  0  0  0  0  0  0  0  0  # atno 3677 bound_to 1070
   -9.6766  -36.3758  -33.9682 H   0  0  0  0  0  0  0  0  0  0  0  0  # atno 3781 bound_to 1176
  -15.9716  -27.5796  -37.3876 H   0  0  0  0  0  0  0  0  0  0  0  0  # atno 3847 bound_to 1247
  -13.1829  -24.0896  -40.4260 H   0  0  0  0  0  0  0  0  0  0  0  0  # atno 4507 bound_to 1931
   -1.6245  -33.8763  -36.9471 H   0  0  0  0  0  0  0  0  0  0  0  0  # atno 4531 bound_to 1957
   -2.2628  -30.1205  -30.5812 LP  0  0  0  0  0  0  0  0  0  0  0  0  # atno 5201 bound_to 925 
   -3.7328  -29.5135  -30.2104 LP  0  0  0  0  0  0  0  0  0  0  0  0  # atno 5202 bound_to 925 
   -9.6009  -36.8988  -32.4291 LP  0  0  0  0  0  0  0  0  0  0  0  0  # atno 5205 bound_to 1176
  -10.8357  -37.3620  -33.3921 LP  0  0  0  0  0  0  0  0  0  0  0  0  # atno 5206 bound_to 1176
   -3.0978  -33.2506  -36.6538 LP  0  0  0  0  0  0  0  0  0  0  0  0  # atno 5213 bound_to 1957
   -1.8180  -32.2619  -36.8800 LP  0  0  0  0  0  0  0  0  0  0  0  0  # atno 5214 bound_to 1957
  -14.4452  -27.6969  -37.9392 LP  0  0  0  0  0  0  0  0  0  0  0  0  # atno 5227 bound_to 1247
  -15.1421  -28.9642  -37.1809 LP  0  0  0  0  0  0  0  0  0  0  0  0  # atno 5228 bound_to 1247
  -12.4639  -24.2715  -38.9775 LP  0  0  0  0  0  0  0  0  0  0  0  0  # atno 5245 bound_to 1931
  -13.5472  -25.3765  -39.4992 LP  0  0  0  0  0  0  0  0  0  0  0  0  # atno 5246 bound_to 1931
  -12.4221  -23.7984  -31.1073 LP  0  0  0  0  0  0  0  0  0  0  0  0  # atno 5265 bound_to 1070
  -11.0857  -22.8686  -31.2347 LP  0  0  0  0  0  0  0  0  0  0  0  0  # atno 5266 bound_to 1070

$$$$
EZ_175a|Lisa_paper2_min|sdf|5|dock4
  -GOLD-  10202014293D 1   1.00000     0.00000

 48 51  0  0  0  0  0  0  0  0  1 V2000
   -4.8735  -31.9265  -35.5009 C   0  0  0  0  0  0  0  0  0  0  0  0
   -4.4909  -30.5833  -35.5192 C   0  0  0  0  0  0  0  0  0  0  0  0
   -6.1718  -32.3019  -35.1331 C   0  0  0  0  0  0  0  0  0  0  0  0
   -5.3884  -29.5681  -35.1721 C   0  0  0  0  0  0  0  0  0  0  0  0
  -12.8552  -27.3909  -35.7862 C   0  0  0  0  0  0  0  0  0  0  0  0
  -16.7129  -23.3574  -39.5803 C   0  0  0  0  0  0  0  0  0  0  0  0
  -12.0399  -28.1364  -34.9348 C   0  0  0  0  0  0  0  0  0  0  0  0
  -18.0122  -23.0941  -40.0141 C   0  0  0  0  0  0  0  0  0  0  0  0
  -11.4137  -25.4750  -35.4890 C   0  0  0  0  0  0  0  0  0  0  0  0
  -17.5876  -24.7226  -37.7892 C   0  0  0  0  0  0  0  0  0  0  0  0
  -10.5984  -26.2205  -34.6375 C   0  0  0  0  0  0  0  0  0  0  0  0
   -7.0865  -31.2950  -34.7811 C   0  0  0  0  0  0  0  0  0  0  0  0
   -6.6757  -29.9652  -34.8091 C   0  0  0  0  0  0  0  0  0  0  0  0
  -12.5421  -26.0601  -36.0634 C   0  0  0  0  0  0  0  0  0  0  0  0
  -16.5006  -24.1718  -38.4679 C   0  0  0  0  0  0  0  0  0  0  0  0
  -10.9115  -27.5513  -34.3603 C   0  0  0  0  0  0  0  0  0  0  0  0
  -19.0992  -23.6449  -39.3353 C   0  0  0  0  0  0  0  0  0  0  0  0
  -18.8869  -24.4592  -38.2229 C   0  0  0  0  0  0  0  0  0  0  0  0
   -8.7884  -30.1540  -34.1800 C   0  0  0  0  0  0  0  0  0  0  0  0
  -14.7666  -25.3600  -37.0535 C   0  0  0  0  0  0  0  0  0  0  0  0
   -9.3944  -25.5782  -34.0314 C   0  0  0  0  0  0  0  0  0  0  0  0
  -10.1243  -29.7085  -33.7419 C   0  0  0  0  0  0  0  0  0  0  0  0
   -8.4016  -31.3926  -34.3881 N   0  0  0  0  0  0  0  0  0  0  0  0
   -7.7843  -29.2578  -34.4202 N   0  0  0  0  0  0  0  0  0  0  0  0
  -13.3578  -25.3148  -36.9152 N   0  0  0  0  0  0  0  0  0  0  0  0
  -15.1825  -24.4393  -38.0286 N   0  0  0  0  0  0  0  0  0  0  0  0
  -15.5081  -26.0976  -36.4121 O   0  0  0  0  0  0  0  0  0  0  0  0
  -10.1230  -28.2967  -33.5279 O   0  0  0  0  0  0  0  0  0  0  0  0
  -20.6843  -23.2788  -39.9197 Cl  0  0  0  0  0  0  0  0  0  0  0  0
  -20.1925  -25.1687  -37.3393 Cl  0  0  0  0  0  0  0  0  0  0  0  0
   -4.1534  -32.6928  -35.7765 H   0  0  0  0  0  0  0  0  0  0  0  0
   -3.4758  -30.3211  -35.8074 H   0  0  0  0  0  0  0  0  0  0  0  0
   -6.4591  -33.3483  -35.1232 H   0  0  0  0  0  0  0  0  0  0  0  0
   -5.0935  -28.5251  -35.1867 H   0  0  0  0  0  0  0  0  0  0  0  0
  -13.7321  -27.8573  -36.2283 H   0  0  0  0  0  0  0  0  0  0  0  0
  -15.8729  -22.9245  -40.1173 H   0  0  0  0  0  0  0  0  0  0  0  0
  -12.2895  -29.1727  -34.7232 H   0  0  0  0  0  0  0  0  0  0  0  0
  -18.1588  -22.4584  -40.8838 H   0  0  0  0  0  0  0  0  0  0  0  0
  -11.1682  -24.4373  -35.7043 H   0  0  0  0  0  0  0  0  0  0  0  0
  -17.4157  -25.3560  -36.9212 H   0  0  0  0  0  0  0  0  0  0  0  0
   -9.6532  -25.1140  -33.0726 H   0  0  0  0  0  0  0  0  0  0  0  0
   -8.5970  -26.3120  -33.8604 H   0  0  0  0  0  0  0  0  0  0  0  0
   -8.9811  -24.8065  -34.6930 H   0  0  0  0  0  0  0  0  0  0  0  0
  -10.9062  -29.9377  -34.4880 H   0  0  0  0  0  0  0  0  0  0  0  0
  -10.4347  -30.1961  -32.8005 H   0  0  0  0  0  0  0  0  0  0  0  0
   -7.8453  -28.2522  -34.3292 H   0  0  0  0  0  0  0  0  0  0  0  0
  -12.8728  -24.6453  -37.5220 H   0  0  0  0  0  0  0  0  0  0  0  0
  -14.4512  -23.8949  -38.4790 H   0  0  0  0  0  0  0  0  0  0  0  0
  1  2  2  0  0  0  0
  1  3  1  0  0  0  0
  2  4  1  0  0  0  0
  3 12  2  0  0  0  0
  4 13  2  0  0  0  0
  5  7  2  0  0  0  0
  5 14  1  0  0  0  0
  6  8  1  0  0  0  0
  6 15  2  0  0  0  0
  7 16  1  0  0  0  0
  8 17  2  0  0  0  0
  9 11  1  0  0  0  0
  9 14  2  0  0  0  0
 10 15  1  0  0  0  0
 10 18  2  0  0  0  0
 11 16  2  0  0  0  0
 11 21  1  0  0  0  0
 12 13  1  0  0  0  0
 12 23  1  0  0  0  0
 13 24  1  0  0  0  0
 14 25  1  0  0  0  0
 15 26  1  0  0  0  0
 16 28  1  0  0  0  0
 17 18  1  0  0  0  0
 17 29  1  0  0  0  0
 18 30  1  0  0  0  0
 19 22  1  0  0  0  0
 19 23  2  0  0  0  0
 19 24  1  0  0  0  0
 20 25  1  0  0  0  0
 20 26  1  0  0  0  0
 20 27  2  0  0  0  0
 22 28  1  0  0  0  0
  1 31  1  0  0  0  0
  2 32  1  0  0  0  0
  3 33  1  0  0  0  0
  4 34  1  0  0  0  0
  5 35  1  0  0  0  0
  6 36  1  0  0  0  0
  7 37  1  0  0  0  0
  8 38  1  0  0  0  0
  9 39  1  0  0  0  0
 10 40  1  0  0  0  0
 21 41  1  0  0  0  0
 21 42  1  0  0  0  0
 21 43  1  0  0  0  0
 22 44  1  0  0  0  0
 22 45  1  0  0  0  0
 24 46  1  0  0  0  0
 25 47  1  0  0  0  0
 26 48  1  0  0  0  0
M  END
> <Name>
EZ_175a

> <SourceTag>
EZ_175a

> <Activity_sEH>
4.9

> <Activity_FLAP>
0.4

> <Gold.Version>
5.2

> <Gold.Id.Protein>
6HGV|6HGV_protein|mol2

> <Gold.PLP.Fitness>
90.8735

> <Gold.PLP.PLP>
-87.9313

> <Gold.PLP.part.hbond>
-8.0689

> <Gold.PLP.part.metal>
0.0000

> <Gold.PLP.part.buried>
3.6755

> <Gold.PLP.part.nonpolar>
-84.1064

> <Gold.PLP.part.repulsive>
0.0748

> <Gold.PLP.ligand.clash>
0.0000

> <Gold.PLP.ligand.torsion>
1.0336

> <Gold.PLP.Chemscore.Hbond>
1.0775

> <Gold.PLP.Chemscore.CHOScore>
0.0000

> <Gold.PLP.Chemscore.Metal>
0.0000

> <Gold.Chemscore.Hbonds>
donor molecule, donor type, donor heavy atom, donor atom, acceptor molecule, acceptor atom, score
      L1  H    25    47       P1  1931  0.55
      P1  H  1247  3847       L1    27  0.53

> <Gold.PLP.Chemscore.Internal.Correction>
0.3768

> <Gold.Protein.RotatedTorsions>
[ 3525  925  924  922 ] final -114.10 input   59.99 | X-H torsion
[ 3781 1176 1175 1172 ] final -128.62 input   60.00 | X-H torsion
[ 4531 1957 1955 1953 ] final -159.29 input   60.00 | X-H torsion
[ 3847 1247 1246 1244 ] final  -78.96 input   60.00 | X-H torsion
[ 4507 1931 1930 1928 ] final -148.18 input   60.00 | X-H torsion
[ 3677 1070 1069 1066 ] final -177.57 input   60.00 | X-H torsion

> <Gold.Protein.ActiveResidues>
 GLY266  PHE267  PRO268  GLU269  MET310  HIS334  ASP335  TRP336  GLY337  GLY338 
 MET339  LEU340  TRP342  TYR343  LEU358  ASN359  THR360  PRO361  ILE363  ALA365 
 MET369  SER370  PRO371  LEU372  GLU373  SER374  ILE375  LYS376  ALA377  ASN378 
 VAL380  PHE381  ASP382  TYR383  GLN384  PHE387  GLN388  LEU397  SER407  LEU408 
 PHE409  ARG410  LEU417  MET419  LEU428  PHE429  PHE459  TRP465  TYR466  ASN468 
 MET469  GLU470  ASN472  TRP473  ALA476  ASP496  PHE497  VAL498  LEU499  MET503 
 HIS524  TRP525 

> <Gold.Protein.RotatedAtoms>
   -3.1094  -29.8915  -29.0226 H   0  0  0  0  0  0  0  0  0  0  0  0  # atno 3525 bound_to 925 
  -11.0903  -22.8004  -31.1907 H   0  0  0  0  0  0  0  0  0  0  0  0  # atno 3677 bound_to 1070
   -9.3911  -36.3101  -33.6352 H   0  0  0  0  0  0  0  0  0  0  0  0  # atno 3781 bound_to 1176
  -15.9839  -27.6029  -37.3739 H   0  0  0  0  0  0  0  0  0  0  0  0  # atno 3847 bound_to 1247
  -13.2171  -24.1255  -40.4414 H   0  0  0  0  0  0  0  0  0  0  0  0  # atno 4507 bound_to 1931
   -1.3252  -33.4764  -36.9971 H   0  0  0  0  0  0  0  0  0  0  0  0  # atno 4531 bound_to 1957
   -2.0869  -30.2281  -30.2430 LP  0  0  0  0  0  0  0  0  0  0  0  0  # atno 5201 bound_to 925 
   -3.5454  -29.5636  -30.5557 LP  0  0  0  0  0  0  0  0  0  0  0  0  # atno 5202 bound_to 925 
   -9.9582  -37.1599  -32.3686 LP  0  0  0  0  0  0  0  0  0  0  0  0  # atno 5205 bound_to 1176
  -10.7659  -37.1671  -33.7879 LP  0  0  0  0  0  0  0  0  0  0  0  0  # atno 5206 bound_to 1176
   -2.9067  -33.7165  -36.6982 LP  0  0  0  0  0  0  0  0  0  0  0  0  # atno 5213 bound_to 1957
   -2.3105  -32.1987  -36.7853 LP  0  0  0  0  0  0  0  0  0  0  0  0  # atno 5214 bound_to 1957
  -14.4609  -27.6716  -37.9427 LP  0  0  0  0  0  0  0  0  0  0  0  0  # atno 5227 bound_to 1247
  -15.1140  -28.9660  -37.1912 LP  0  0  0  0  0  0  0  0  0  0  0  0  # atno 5228 bound_to 1247
  -12.4533  -24.2306  -39.0084 LP  0  0  0  0  0  0  0  0  0  0  0  0  # atno 5245 bound_to 1931
  -13.5233  -25.3813  -39.4528 LP  0  0  0  0  0  0  0  0  0  0  0  0  # atno 5246 bound_to 1931
  -12.4121  -22.4140  -30.3237 LP  0  0  0  0  0  0  0  0  0  0  0  0  # atno 5265 bound_to 1070
  -12.3576  -23.8205  -31.1515 LP  0  0  0  0  0  0  0  0  0  0  0  0  # atno 5266 bound_to 1070

$$$$
EZ_175a|Lisa_paper2_min|sdf|5|dock6
  -GOLD-  10202014293D 1   1.00000     0.00000

 48 51  0  0  0  0  0  0  0  0  1 V2000
   -4.5923  -31.0840  -35.5055 C   0  0  0  0  0  0  0  0  0  0  0  0
   -5.0696  -32.3965  -35.5254 C   0  0  0  0  0  0  0  0  0  0  0  0
   -5.4262  -30.0185  -35.1435 C   0  0  0  0  0  0  0  0  0  0  0  0
   -6.3937  -32.6927  -35.1850 C   0  0  0  0  0  0  0  0  0  0  0  0
  -12.9083  -27.4634  -35.7876 C   0  0  0  0  0  0  0  0  0  0  0  0
  -16.7247  -23.2528  -39.4778 C   0  0  0  0  0  0  0  0  0  0  0  0
  -12.1008  -28.2132  -34.9326 C   0  0  0  0  0  0  0  0  0  0  0  0
  -18.0228  -22.9618  -39.8971 C   0  0  0  0  0  0  0  0  0  0  0  0
  -11.4234  -25.5746  -35.5337 C   0  0  0  0  0  0  0  0  0  0  0  0
  -17.5965  -24.8477  -37.8861 C   0  0  0  0  0  0  0  0  0  0  0  0
  -10.6158  -26.3244  -34.6786 C   0  0  0  0  0  0  0  0  0  0  0  0
   -6.7595  -30.2977  -34.7988 C   0  0  0  0  0  0  0  0  0  0  0  0
   -7.2059  -31.6160  -34.8279 C   0  0  0  0  0  0  0  0  0  0  0  0
  -12.5696  -26.1440  -36.0882 C   0  0  0  0  0  0  0  0  0  0  0  0
  -16.5115  -24.1959  -38.4722 C   0  0  0  0  0  0  0  0  0  0  0  0
  -10.9546  -27.6438  -34.3780 C   0  0  0  0  0  0  0  0  0  0  0  0
  -19.1078  -23.6137  -39.3108 C   0  0  0  0  0  0  0  0  0  0  0  0
  -18.8945  -24.5566  -38.3054 C   0  0  0  0  0  0  0  0  0  0  0  0
   -8.8104  -30.2240  -34.2089 C   0  0  0  0  0  0  0  0  0  0  0  0
  -14.7892  -25.4022  -37.0589 C   0  0  0  0  0  0  0  0  0  0  0  0
   -9.3925  -25.6991  -34.0940 C   0  0  0  0  0  0  0  0  0  0  0  0
  -10.1557  -29.8016  -33.7768 C   0  0  0  0  0  0  0  0  0  0  0  0
   -7.7698  -29.4474  -34.4120 N   0  0  0  0  0  0  0  0  0  0  0  0
   -8.5208  -31.5389  -34.4461 N   0  0  0  0  0  0  0  0  0  0  0  0
  -13.3776  -25.3943  -36.9436 N   0  0  0  0  0  0  0  0  0  0  0  0
  -15.1946  -24.4913  -38.0477 N   0  0  0  0  0  0  0  0  0  0  0  0
  -15.5407  -26.1042  -36.3900 O   0  0  0  0  0  0  0  0  0  0  0  0
  -10.1740  -28.3933  -33.5418 O   0  0  0  0  0  0  0  0  0  0  0  0
  -20.6916  -23.2073  -39.8716 Cl  0  0  0  0  0  0  0  0  0  0  0  0
  -20.1977  -25.3957  -37.5394 Cl  0  0  0  0  0  0  0  0  0  0  0  0
   -3.5579  -30.8856  -35.7747 H   0  0  0  0  0  0  0  0  0  0  0  0
   -4.4001  -33.2039  -35.8119 H   0  0  0  0  0  0  0  0  0  0  0  0
   -5.0451  -29.0025  -35.1304 H   0  0  0  0  0  0  0  0  0  0  0  0
   -6.7655  -33.7108  -35.1988 H   0  0  0  0  0  0  0  0  0  0  0  0
  -13.7993  -27.9174  -36.2140 H   0  0  0  0  0  0  0  0  0  0  0  0
  -15.8862  -22.7403  -39.9423 H   0  0  0  0  0  0  0  0  0  0  0  0
  -12.3703  -29.2405  -34.7027 H   0  0  0  0  0  0  0  0  0  0  0  0
  -18.1701  -22.2252  -40.6830 H   0  0  0  0  0  0  0  0  0  0  0  0
  -11.1579  -24.5458  -35.7672 H   0  0  0  0  0  0  0  0  0  0  0  0
  -17.4239  -25.5814  -37.1011 H   0  0  0  0  0  0  0  0  0  0  0  0
   -9.6318  -25.2149  -33.1400 H   0  0  0  0  0  0  0  0  0  0  0  0
   -8.6093  -26.4472  -33.9193 H   0  0  0  0  0  0  0  0  0  0  0  0
   -8.9694  -24.9466  -34.7712 H   0  0  0  0  0  0  0  0  0  0  0  0
  -10.9278  -30.0292  -34.5335 H   0  0  0  0  0  0  0  0  0  0  0  0
  -10.4686  -30.3071  -32.8458 H   0  0  0  0  0  0  0  0  0  0  0  0
   -9.1597  -32.3180  -34.3561 H   0  0  0  0  0  0  0  0  0  0  0  0
  -12.8837  -24.7522  -37.5724 H   0  0  0  0  0  0  0  0  0  0  0  0
  -14.4555  -23.9780  -38.5212 H   0  0  0  0  0  0  0  0  0  0  0  0
  1  2  2  0  0  0  0
  1  3  1  0  0  0  0
  2  4  1  0  0  0  0
  3 12  2  0  0  0  0
  4 13  2  0  0  0  0
  5  7  2  0  0  0  0
  5 14  1  0  0  0  0
  6  8  1  0  0  0  0
  6 15  2  0  0  0  0
  7 16  1  0  0  0  0
  8 17  2  0  0  0  0
  9 11  1  0  0  0  0
  9 14  2  0  0  0  0
 10 15  1  0  0  0  0
 10 18  2  0  0  0  0
 11 16  2  0  0  0  0
 11 21  1  0  0  0  0
 12 13  1  0  0  0  0
 12 23  1  0  0  0  0
 13 24  1  0  0  0  0
 14 25  1  0  0  0  0
 15 26  1  0  0  0  0
 16 28  1  0  0  0  0
 17 18  1  0  0  0  0
 17 29  1  0  0  0  0
 18 30  1  0  0  0  0
 19 22  1  0  0  0  0
 19 23  2  0  0  0  0
 19 24  1  0  0  0  0
 20 25  1  0  0  0  0
 20 26  1  0  0  0  0
 20 27  2  0  0  0  0
 22 28  1  0  0  0  0
  1 31  1  0  0  0  0
  2 32  1  0  0  0  0
  3 33  1  0  0  0  0
  4 34  1  0  0  0  0
  5 35  1  0  0  0  0
  6 36  1  0  0  0  0
  7 37  1  0  0  0  0
  8 38  1  0  0  0  0
  9 39  1  0  0  0  0
 10 40  1  0  0  0  0
 21 41  1  0  0  0  0
 21 42  1  0  0  0  0
 21 43  1  0  0  0  0
 22 44  1  0  0  0  0
 22 45  1  0  0  0  0
 24 46  1  0  0  0  0
 25 47  1  0  0  0  0
 26 48  1  0  0  0  0
M  END
> <Name>
EZ_175a

> <SourceTag>
EZ_175a

> <Activity_sEH>
4.9

> <Activity_FLAP>
0.4

> <Gold.Version>
5.2

> <Gold.Id.Protein>
6HGV|6HGV_protein|mol2

> <Gold.PLP.Fitness>
90.4944

> <Gold.PLP.PLP>
-87.4663

> <Gold.PLP.part.hbond>
-7.8473

> <Gold.PLP.part.metal>
0.0000

> <Gold.PLP.part.buried>
4.2116

> <Gold.PLP.part.nonpolar>
-84.0494

> <Gold.PLP.part.repulsive>
0.0726

> <Gold.PLP.ligand.clash>
0.0000

> <Gold.PLP.ligand.torsion>
1.0174

> <Gold.PLP.Chemscore.Hbond>
1.0984

> <Gold.PLP.Chemscore.CHOScore>
0.0000

> <Gold.PLP.Chemscore.Metal>
0.0000

> <Gold.Chemscore.Hbonds>
donor molecule, donor type, donor heavy atom, donor atom, acceptor molecule, acceptor atom, score
      L1  H    25    47       P1  1931  0.61
      P1  H  1247  3847       L1    27  0.49

> <Gold.PLP.Chemscore.Internal.Correction>
0.3768

> <Gold.Protein.RotatedTorsions>
[ 3525  925  924  922 ] final  -96.30 input   59.99 | X-H torsion
[ 3781 1176 1175 1172 ] final -164.11 input   60.00 | X-H torsion
[ 4531 1957 1955 1953 ] final  -74.15 input   60.00 | X-H torsion
[ 3847 1247 1246 1244 ] final  -71.86 input   60.00 | X-H torsion
[ 4507 1931 1930 1928 ] final -156.61 input   60.00 | X-H torsion
[ 3677 1070 1069 1066 ] final  162.64 input   60.00 | X-H torsion

> <Gold.Protein.ActiveResidues>
 GLY266  PHE267  PRO268  GLU269  MET310  HIS334  ASP335  TRP336  GLY337  GLY338 
 MET339  LEU340  TRP342  TYR343  LEU358  ASN359  THR360  PRO361  ILE363  ALA365 
 MET369  SER370  PRO371  LEU372  GLU373  SER374  ILE375  LYS376  ALA377  ASN378 
 VAL380  PHE381  ASP382  TYR383  GLN384  PHE387  GLN388  LEU397  SER407  LEU408 
 PHE409  ARG410  LEU417  MET419  LEU428  PHE429  PHE459  TRP465  TYR466  ASN468 
 MET469  GLU470  ASN472  TRP473  ALA476  ASP496  PHE497  VAL498  LEU499  MET503 
 HIS524  TRP525 

> <Gold.Protein.RotatedAtoms>
   -3.3556  -29.7751  -29.1213 H   0  0  0  0  0  0  0  0  0  0  0  0  # atno 3525 bound_to 925 
  -11.1517  -22.5399  -31.0121 H   0  0  0  0  0  0  0  0  0  0  0  0  # atno 3677 bound_to 1070
   -9.2421  -36.4134  -33.0940 H   0  0  0  0  0  0  0  0  0  0  0  0  # atno 3781 bound_to 1176
  -16.0241  -27.6983  -37.3216 H   0  0  0  0  0  0  0  0  0  0  0  0  # atno 3847 bound_to 1247
  -13.1255  -24.0336  -40.3953 H   0  0  0  0  0  0  0  0  0  0  0  0  # atno 4507 bound_to 1931
   -1.7661  -32.2935  -36.8928 H   0  0  0  0  0  0  0  0  0  0  0  0  # atno 4531 bound_to 1957
   -2.0499  -30.2704  -29.9567 LP  0  0  0  0  0  0  0  0  0  0  0  0  # atno 5201 bound_to 925 
   -3.3343  -29.6385  -30.7427 LP  0  0  0  0  0  0  0  0  0  0  0  0  # atno 5202 bound_to 925 
  -10.4349  -37.3966  -32.5857 LP  0  0  0  0  0  0  0  0  0  0  0  0  # atno 5205 bound_to 1176
  -10.4393  -36.8264  -34.1158 LP  0  0  0  0  0  0  0  0  0  0  0  0  # atno 5206 bound_to 1176
   -1.6699  -33.9174  -36.9368 LP  0  0  0  0  0  0  0  0  0  0  0  0  # atno 5213 bound_to 1957
   -3.1033  -33.1890  -36.6517 LP  0  0  0  0  0  0  0  0  0  0  0  0  # atno 5214 bound_to 1957
  -14.5289  -27.5771  -37.9521 LP  0  0  0  0  0  0  0  0  0  0  0  0  # atno 5227 bound_to 1247
  -15.0055  -28.9643  -37.2344 LP  0  0  0  0  0  0  0  0  0  0  0  0  # atno 5228 bound_to 1247
  -12.4856  -24.3410  -38.9311 LP  0  0  0  0  0  0  0  0  0  0  0  0  # atno 5245 bound_to 1931
  -13.5833  -25.3633  -39.5765 LP  0  0  0  0  0  0  0  0  0  0  0  0  # atno 5246 bound_to 1931
  -12.6337  -22.6492  -30.3487 LP  0  0  0  0  0  0  0  0  0  0  0  0  # atno 5265 bound_to 1070
  -12.0742  -23.8477  -31.3064 LP  0  0  0  0  0  0  0  0  0  0  0  0  # atno 5266 bound_to 1070

$$$$
EZ_175a|Lisa_paper2_min|sdf|5|dock1
  -GOLD-  10202014283D 1   1.00000     0.00000

 48 51  0  0  0  0  0  0  0  0  1 V2000
   -5.0705  -31.9046  -35.5086 C   0  0  0  0  0  0  0  0  0  0  0  0
   -4.6835  -30.5629  -35.4780 C   0  0  0  0  0  0  0  0  0  0  0  0
   -6.3698  -32.2890  -35.1539 C   0  0  0  0  0  0  0  0  0  0  0  0
   -5.5775  -29.5581  -35.0933 C   0  0  0  0  0  0  0  0  0  0  0  0
  -13.0383  -27.4732  -35.7928 C   0  0  0  0  0  0  0  0  0  0  0  0
  -16.8273  -23.4636  -39.7064 C   0  0  0  0  0  0  0  0  0  0  0  0
  -12.2385  -28.1925  -34.9050 C   0  0  0  0  0  0  0  0  0  0  0  0
  -18.1232  -23.1654  -40.1276 C   0  0  0  0  0  0  0  0  0  0  0  0
  -11.5688  -25.5681  -35.5732 C   0  0  0  0  0  0  0  0  0  0  0  0
  -17.7214  -24.7502  -37.8672 C   0  0  0  0  0  0  0  0  0  0  0  0
  -10.7689  -26.2875  -34.6852 C   0  0  0  0  0  0  0  0  0  0  0  0
   -7.2810  -31.2926  -34.7647 C   0  0  0  0  0  0  0  0  0  0  0  0
   -6.8659  -29.9641  -34.7443 C   0  0  0  0  0  0  0  0  0  0  0  0
  -12.7034  -26.1609  -36.1270 C   0  0  0  0  0  0  0  0  0  0  0  0
  -16.6264  -24.2561  -38.5761 C   0  0  0  0  0  0  0  0  0  0  0  0
  -11.1038  -27.5998  -34.3511 C   0  0  0  0  0  0  0  0  0  0  0  0
  -19.2182  -23.6594  -39.4186 C   0  0  0  0  0  0  0  0  0  0  0  0
  -19.0172  -24.4518  -38.2884 C   0  0  0  0  0  0  0  0  0  0  0  0
   -8.9788  -30.1689  -34.1210 C   0  0  0  0  0  0  0  0  0  0  0  0
  -14.9163  -25.4216  -37.1146 C   0  0  0  0  0  0  0  0  0  0  0  0
   -9.5579  -25.6374  -34.1019 C   0  0  0  0  0  0  0  0  0  0  0  0
  -10.3130  -29.7354  -33.6660 C   0  0  0  0  0  0  0  0  0  0  0  0
   -8.5962  -31.4003  -34.3746 N   0  0  0  0  0  0  0  0  0  0  0  0
   -7.9719  -29.2678  -34.3290 N   0  0  0  0  0  0  0  0  0  0  0  0
  -13.5036  -25.4417  -37.0152 N   0  0  0  0  0  0  0  0  0  0  0  0
  -15.3119  -24.5590  -38.1496 N   0  0  0  0  0  0  0  0  0  0  0  0
  -15.6762  -26.0656  -36.3984 O   0  0  0  0  0  0  0  0  0  0  0  0
  -10.3307  -28.3195  -33.4824 O   0  0  0  0  0  0  0  0  0  0  0  0
  -20.7984  -23.2522  -39.9890 Cl  0  0  0  0  0  0  0  0  0  0  0  0
  -20.3330  -25.0913  -37.3672 Cl  0  0  0  0  0  0  0  0  0  0  0  0
   -4.3530  -32.6627  -35.8126 H   0  0  0  0  0  0  0  0  0  0  0  0
   -3.6677  -30.2936  -35.7572 H   0  0  0  0  0  0  0  0  0  0  0  0
   -6.6606  -33.3342  -35.1821 H   0  0  0  0  0  0  0  0  0  0  0  0
   -5.2792  -28.5163  -35.0700 H   0  0  0  0  0  0  0  0  0  0  0  0
  -13.9202  -27.9453  -36.2183 H   0  0  0  0  0  0  0  0  0  0  0  0
  -15.9812  -23.0749  -40.2669 H   0  0  0  0  0  0  0  0  0  0  0  0
  -12.5050  -29.2144  -34.6490 H   0  0  0  0  0  0  0  0  0  0  0  0
  -18.2610  -22.5475  -41.0116 H   0  0  0  0  0  0  0  0  0  0  0  0
  -11.3062  -24.5449  -35.8328 H   0  0  0  0  0  0  0  0  0  0  0  0
  -17.5583  -25.3667  -36.9855 H   0  0  0  0  0  0  0  0  0  0  0  0
   -9.8139  -25.1272  -33.1659 H   0  0  0  0  0  0  0  0  0  0  0  0
   -8.7727  -26.3749  -33.8944 H   0  0  0  0  0  0  0  0  0  0  0  0
   -9.1298  -24.9022  -34.7948 H   0  0  0  0  0  0  0  0  0  0  0  0
  -11.1056  -29.9933  -34.3913 H   0  0  0  0  0  0  0  0  0  0  0  0
  -10.5968  -30.2073  -32.7084 H   0  0  0  0  0  0  0  0  0  0  0  0
   -8.0296  -28.2660  -34.2012 H   0  0  0  0  0  0  0  0  0  0  0  0
  -13.0023  -24.8489  -37.6851 H   0  0  0  0  0  0  0  0  0  0  0  0
  -14.5666  -24.0919  -38.6598 H   0  0  0  0  0  0  0  0  0  0  0  0
  1  2  2  0  0  0  0
  1  3  1  0  0  0  0
  2  4  1  0  0  0  0
  3 12  2  0  0  0  0
  4 13  2  0  0  0  0
  5  7  2  0  0  0  0
  5 14  1  0  0  0  0
  6  8  1  0  0  0  0
  6 15  2  0  0  0  0
  7 16  1  0  0  0  0
  8 17  2  0  0  0  0
  9 11  1  0  0  0  0
  9 14  2  0  0  0  0
 10 15  1  0  0  0  0
 10 18  2  0  0  0  0
 11 16  2  0  0  0  0
 11 21  1  0  0  0  0
 12 13  1  0  0  0  0
 12 23  1  0  0  0  0
 13 24  1  0  0  0  0
 14 25  1  0  0  0  0
 15 26  1  0  0  0  0
 16 28  1  0  0  0  0
 17 18  1  0  0  0  0
 17 29  1  0  0  0  0
 18 30  1  0  0  0  0
 19 22  1  0  0  0  0
 19 23  2  0  0  0  0
 19 24  1  0  0  0  0
 20 25  1  0  0  0  0
 20 26  1  0  0  0  0
 20 27  2  0  0  0  0
 22 28  1  0  0  0  0
  1 31  1  0  0  0  0
  2 32  1  0  0  0  0
  3 33  1  0  0  0  0
  4 34  1  0  0  0  0
  5 35  1  0  0  0  0
  6 36  1  0  0  0  0
  7 37  1  0  0  0  0
  8 38  1  0  0  0  0
  9 39  1  0  0  0  0
 10 40  1  0  0  0  0
 21 41  1  0  0  0  0
 21 42  1  0  0  0  0
 21 43  1  0  0  0  0
 22 44  1  0  0  0  0
 22 45  1  0  0  0  0
 24 46  1  0  0  0  0
 25 47  1  0  0  0  0
 26 48  1  0  0  0  0
M  END
> <Name>
EZ_175a

> <SourceTag>
EZ_175a

> <Activity_sEH>
4.9

> <Activity_FLAP>
0.4

> <Gold.Version>
5.2

> <Gold.Id.Protein>
6HGV|6HGV_protein|mol2

> <Gold.PLP.Fitness>
90.2299

> <Gold.PLP.PLP>
-86.9787

> <Gold.PLP.part.hbond>
-7.9554

> <Gold.PLP.part.metal>
0.0000

> <Gold.PLP.part.buried>
3.8506

> <Gold.PLP.part.nonpolar>
-82.7806

> <Gold.PLP.part.repulsive>
0.0782

> <Gold.PLP.ligand.clash>
0.0000

> <Gold.PLP.ligand.torsion>
1.0471

> <Gold.PLP.Chemscore.Hbond>
1.1639

> <Gold.PLP.Chemscore.CHOScore>
0.0000

> <Gold.PLP.Chemscore.Metal>
0.0000

> <Gold.Chemscore.Hbonds>
donor molecule, donor type, donor heavy atom, donor atom, acceptor molecule, acceptor atom, score
      L1  H    25    47       P1  1931  0.76
      P1  H  1247  3847       L1    27  0.40

> <Gold.PLP.Chemscore.Internal.Correction>
0.4109

> <Gold.Protein.RotatedTorsions>
[ 3525  925  924  922 ] final   41.25 input   59.99 | X-H torsion
[ 3781 1176 1175 1172 ] final   70.11 input   60.00 | X-H torsion
[ 4531 1957 1955 1953 ] final  -16.58 input   60.00 | X-H torsion
[ 3847 1247 1246 1244 ] final  -61.45 input   60.00 | X-H torsion
[ 4507 1931 1930 1928 ] final -162.13 input   60.00 | X-H torsion
[ 3677 1070 1069 1066 ] final   24.68 input   60.00 | X-H torsion

> <Gold.Protein.ActiveResidues>
 GLY266  PHE267  PRO268  GLU269  MET310  HIS334  ASP335  TRP336  GLY337  GLY338 
 MET339  LEU340  TRP342  TYR343  LEU358  ASN359  THR360  PRO361  ILE363  ALA365 
 MET369  SER370  PRO371  LEU372  GLU373  SER374  ILE375  LYS376  ALA377  ASN378 
 VAL380  PHE381  ASP382  TYR383  GLN384  PHE387  GLN388  LEU397  SER407  LEU408 
 PHE409  ARG410  LEU417  MET419  LEU428  PHE429  PHE459  TRP465  TYR466  ASN468 
 MET469  GLU470  ASN472  TRP473  ALA476  ASP496  PHE497  VAL498  LEU499  MET503 
 HIS524  TRP525 

> <Gold.Protein.RotatedAtoms>
   -3.0847  -29.7355  -30.8450 H   0  0  0  0  0  0  0  0  0  0  0  0  # atno 3525 bound_to 925 
  -12.7589  -22.9022  -30.4283 H   0  0  0  0  0  0  0  0  0  0  0  0  # atno 3677 bound_to 1070
  -10.4982  -37.4164  -32.6536 H   0  0  0  0  0  0  0  0  0  0  0  0  # atno 3781 bound_to 1176
  -16.0597  -27.8482  -37.2503 H   0  0  0  0  0  0  0  0  0  0  0  0  # atno 3847 bound_to 1247
  -13.0647  -23.9798  -40.3562 H   0  0  0  0  0  0  0  0  0  0  0  0  # atno 4507 bound_to 1931
   -2.6513  -32.3295  -36.7252 H   0  0  0  0  0  0  0  0  0  0  0  0  # atno 4531 bound_to 1957
   -3.5625  -29.6719  -29.2908 LP  0  0  0  0  0  0  0  0  0  0  0  0  # atno 5201 bound_to 925 
   -2.0946  -30.2769  -29.6726 LP  0  0  0  0  0  0  0  0  0  0  0  0  # atno 5202 bound_to 925 
  -10.3677  -36.7692  -34.1409 LP  0  0  0  0  0  0  0  0  0  0  0  0  # atno 5205 bound_to 1176
   -9.2416  -36.4437  -33.0041 LP  0  0  0  0  0  0  0  0  0  0  0  0  # atno 5206 bound_to 1176
   -1.2525  -33.1137  -37.0022 LP  0  0  0  0  0  0  0  0  0  0  0  0  # atno 5213 bound_to 1957
   -2.6293  -33.9564  -36.7551 LP  0  0  0  0  0  0  0  0  0  0  0  0  # atno 5214 bound_to 1957
  -14.6465  -27.4530  -37.9535 LP  0  0  0  0  0  0  0  0  0  0  0  0  # atno 5227 bound_to 1247
  -14.8520  -28.9375  -37.3049 LP  0  0  0  0  0  0  0  0  0  0  0  0  # atno 5228 bound_to 1247
  -12.5135  -24.4162  -38.8886 LP  0  0  0  0  0  0  0  0  0  0  0  0  # atno 5245 bound_to 1931
  -13.6165  -25.3423  -39.6583 LP  0  0  0  0  0  0  0  0  0  0  0  0  # atno 5246 bound_to 1931
  -11.8037  -23.7868  -31.4046 LP  0  0  0  0  0  0  0  0  0  0  0  0  # atno 5265 bound_to 1070
  -11.2858  -22.3453  -30.8383 LP  0  0  0  0  0  0  0  0  0  0  0  0  # atno 5266 bound_to 1070

$$$$
EZ_175a|Lisa_paper2_min|sdf|5|dock7
  -GOLD-  10202014303D 1   1.00000     0.00000

 48 51  0  0  0  0  0  0  0  0  1 V2000
   -3.9463  -32.0635  -34.5874 C   0  0  0  0  0  0  0  0  0  0  0  0
   -4.6761  -33.2159  -34.8875 C   0  0  0  0  0  0  0  0  0  0  0  0
   -4.5828  -30.8249  -34.4380 C   0  0  0  0  0  0  0  0  0  0  0  0
   -6.0650  -33.1741  -35.0488 C   0  0  0  0  0  0  0  0  0  0  0  0
  -11.7686  -26.8822  -36.8411 C   0  0  0  0  0  0  0  0  0  0  0  0
  -16.4014  -23.0724  -39.5662 C   0  0  0  0  0  0  0  0  0  0  0  0
  -10.8029  -27.7057  -36.2626 C   0  0  0  0  0  0  0  0  0  0  0  0
  -17.6958  -22.9765  -40.0772 C   0  0  0  0  0  0  0  0  0  0  0  0
  -11.1131  -25.0807  -35.3708 C   0  0  0  0  0  0  0  0  0  0  0  0
  -17.2019  -24.5286  -37.8123 C   0  0  0  0  0  0  0  0  0  0  0  0
  -10.1473  -25.9041  -34.7923 C   0  0  0  0  0  0  0  0  0  0  0  0
   -5.9777  -30.7644  -34.5969 C   0  0  0  0  0  0  0  0  0  0  0  0
   -6.6776  -31.9300  -34.8956 C   0  0  0  0  0  0  0  0  0  0  0  0
  -11.9237  -25.5696  -36.3952 C   0  0  0  0  0  0  0  0  0  0  0  0
  -16.1545  -23.8485  -38.4337 C   0  0  0  0  0  0  0  0  0  0  0  0
   -9.9922  -27.2168  -35.2382 C   0  0  0  0  0  0  0  0  0  0  0  0
  -18.7432  -23.6565  -39.4558 C   0  0  0  0  0  0  0  0  0  0  0  0
  -18.4962  -24.4326  -38.3233 C   0  0  0  0  0  0  0  0  0  0  0  0
   -8.0276  -30.1841  -34.7401 C   0  0  0  0  0  0  0  0  0  0  0  0
  -14.2057  -25.0776  -37.3798 C   0  0  0  0  0  0  0  0  0  0  0  0
   -9.2882  -25.3643  -33.6969 C   0  0  0  0  0  0  0  0  0  0  0  0
   -9.3016  -29.4413  -34.7582 C   0  0  0  0  0  0  0  0  0  0  0  0
   -6.8328  -29.6903  -34.5042 N   0  0  0  0  0  0  0  0  0  0  0  0
   -7.9862  -31.5291  -34.9814 N   0  0  0  0  0  0  0  0  0  0  0  0
  -12.8898  -24.7462  -36.9741 N   0  0  0  0  0  0  0  0  0  0  0  0
  -14.8414  -23.9462  -37.9160 N   0  0  0  0  0  0  0  0  0  0  0  0
  -14.7094  -26.1913  -37.2748 O   0  0  0  0  0  0  0  0  0  0  0  0
   -9.0502  -28.0377  -34.6822 O   0  0  0  0  0  0  0  0  0  0  0  0
  -20.3246  -23.4953  -40.1350 Cl  0  0  0  0  0  0  0  0  0  0  0  0
  -19.7523  -25.2966  -37.5081 Cl  0  0  0  0  0  0  0  0  0  0  0  0
   -2.8677  -32.1281  -34.4674 H   0  0  0  0  0  0  0  0  0  0  0  0
   -4.1553  -34.1639  -34.9992 H   0  0  0  0  0  0  0  0  0  0  0  0
   -4.0065  -29.9356  -34.2038 H   0  0  0  0  0  0  0  0  0  0  0  0
   -6.6331  -34.0677  -35.2806 H   0  0  0  0  0  0  0  0  0  0  0  0
  -12.3947  -27.2740  -37.6387 H   0  0  0  0  0  0  0  0  0  0  0  0
  -15.5922  -22.5398  -40.0590 H   0  0  0  0  0  0  0  0  0  0  0  0
  -10.6871  -28.7272  -36.6147 H   0  0  0  0  0  0  0  0  0  0  0  0
  -17.8696  -22.3683  -40.9615 H   0  0  0  0  0  0  0  0  0  0  0  0
  -11.2328  -24.0572  -35.0221 H   0  0  0  0  0  0  0  0  0  0  0  0
  -17.0033  -25.1313  -36.9284 H   0  0  0  0  0  0  0  0  0  0  0  0
   -9.7569  -25.5443  -32.7223 H   0  0  0  0  0  0  0  0  0  0  0  0
   -8.2976  -25.8358  -33.7006 H   0  0  0  0  0  0  0  0  0  0  0  0
   -9.1281  -24.2851  -33.8136 H   0  0  0  0  0  0  0  0  0  0  0  0
   -9.8832  -29.6324  -35.6779 H   0  0  0  0  0  0  0  0  0  0  0  0
   -9.9533  -29.7176  -33.9103 H   0  0  0  0  0  0  0  0  0  0  0  0
   -8.7777  -32.1250  -35.1860 H   0  0  0  0  0  0  0  0  0  0  0  0
  -12.6099  -23.7715  -37.1263 H   0  0  0  0  0  0  0  0  0  0  0  0
  -14.2961  -23.0882  -37.9387 H   0  0  0  0  0  0  0  0  0  0  0  0
  1  2  2  0  0  0  0
  1  3  1  0  0  0  0
  2  4  1  0  0  0  0
  3 12  2  0  0  0  0
  4 13  2  0  0  0  0
  5  7  2  0  0  0  0
  5 14  1  0  0  0  0
  6  8  1  0  0  0  0
  6 15  2  0  0  0  0
  7 16  1  0  0  0  0
  8 17  2  0  0  0  0
  9 11  1  0  0  0  0
  9 14  2  0  0  0  0
 10 15  1  0  0  0  0
 10 18  2  0  0  0  0
 11 16  2  0  0  0  0
 11 21  1  0  0  0  0
 12 13  1  0  0  0  0
 12 23  1  0  0  0  0
 13 24  1  0  0  0  0
 14 25  1  0  0  0  0
 15 26  1  0  0  0  0
 16 28  1  0  0  0  0
 17 18  1  0  0  0  0
 17 29  1  0  0  0  0
 18 30  1  0  0  0  0
 19 22  1  0  0  0  0
 19 23  2  0  0  0  0
 19 24  1  0  0  0  0
 20 25  1  0  0  0  0
 20 26  1  0  0  0  0
 20 27  2  0  0  0  0
 22 28  1  0  0  0  0
  1 31  1  0  0  0  0
  2 32  1  0  0  0  0
  3 33  1  0  0  0  0
  4 34  1  0  0  0  0
  5 35  1  0  0  0  0
  6 36  1  0  0  0  0
  7 37  1  0  0  0  0
  8 38  1  0  0  0  0
  9 39  1  0  0  0  0
 10 40  1  0  0  0  0
 21 41  1  0  0  0  0
 21 42  1  0  0  0  0
 21 43  1  0  0  0  0
 22 44  1  0  0  0  0
 22 45  1  0  0  0  0
 24 46  1  0  0  0  0
 25 47  1  0  0  0  0
 26 48  1  0  0  0  0
M  END
> <Name>
EZ_175a

> <SourceTag>
EZ_175a

> <Activity_sEH>
4.9

> <Activity_FLAP>
0.4

> <Gold.Version>
5.2

> <Gold.Id.Protein>
6HGV|6HGV_protein|mol2

> <Gold.PLP.Fitness>
90.2155

> <Gold.PLP.PLP>
-88.8572

> <Gold.PLP.part.hbond>
-8.8492

> <Gold.PLP.part.metal>
0.0000

> <Gold.PLP.part.buried>
8.7539

> <Gold.PLP.part.nonpolar>
-90.0796

> <Gold.PLP.part.repulsive>
0.0807

> <Gold.PLP.ligand.clash>
0.2192

> <Gold.PLP.ligand.torsion>
1.1929

> <Gold.PLP.Chemscore.Hbond>
0.7167

> <Gold.PLP.Chemscore.CHOScore>
0.0000

> <Gold.PLP.Chemscore.Metal>
0.0000

> <Gold.Chemscore.Hbonds>
donor molecule, donor type, donor heavy atom, donor atom, acceptor molecule, acceptor atom, score
      L1  H    25    47       P1   854  0.11
      L1  H    26    48       P1   854  0.03
      P1  H  1247  3847       L1    27  0.58

> <Gold.PLP.Chemscore.Internal.Correction>
0.3768

> <Gold.Protein.RotatedTorsions>
[ 3525  925  924  922 ] final   33.08 input   59.99 | X-H torsion
[ 3781 1176 1175 1172 ] final -126.59 input   60.00 | X-H torsion
[ 4531 1957 1955 1953 ] final -150.91 input   60.00 | X-H torsion
[ 3847 1247 1246 1244 ] final -147.00 input   60.00 | X-H torsion
[ 4507 1931 1930 1928 ] final   46.20 input   60.00 | X-H torsion
[ 3677 1070 1069 1066 ] final  119.60 input   60.00 | X-H torsion

> <Gold.Protein.ActiveResidues>
 GLY266  PHE267  PRO268  GLU269  MET310  HIS334  ASP335  TRP336  GLY337  GLY338 
 MET339  LEU340  TRP342  TYR343  LEU358  ASN359  THR360  PRO361  ILE363  ALA365 
 MET369  SER370  PRO371  LEU372  GLU373  SER374  ILE375  LYS376  ALA377  ASN378 
 VAL380  PHE381  ASP382  TYR383  GLN384  PHE387  GLN388  LEU397  SER407  LEU408 
 PHE409  ARG410  LEU417  MET419  LEU428  PHE429  PHE459  TRP465  TYR466  ASN468 
 MET469  GLU470  ASN472  TRP473  ALA476  ASP496  PHE497  VAL498  LEU499  MET503 
 HIS524  TRP525 

> <Gold.Protein.RotatedAtoms>
   -3.2026  -29.6878  -30.8047 H   0  0  0  0  0  0  0  0  0  0  0  0  # atno 3525 bound_to 925 
  -11.5857  -22.1979  -30.6040 H   0  0  0  0  0  0  0  0  0  0  0  0  # atno 3677 bound_to 1070
   -9.4079  -36.3106  -33.6638 H   0  0  0  0  0  0  0  0  0  0  0  0  # atno 3781 bound_to 1176
  -15.1388  -27.2131  -37.8547 H   0  0  0  0  0  0  0  0  0  0  0  0  # atno 3847 bound_to 1247
  -12.7629  -24.8542  -38.7941 H   0  0  0  0  0  0  0  0  0  0  0  0  # atno 4507 bound_to 1931
   -1.2845  -33.3460  -37.0026 H   0  0  0  0  0  0  0  0  0  0  0  0  # atno 4531 bound_to 1957
   -3.4745  -29.7185  -29.2006 LP  0  0  0  0  0  0  0  0  0  0  0  0  # atno 5201 bound_to 925 
   -2.0639  -30.2783  -29.8034 LP  0  0  0  0  0  0  0  0  0  0  0  0  # atno 5202 bound_to 925 
   -9.9302  -37.1421  -32.3661 LP  0  0  0  0  0  0  0  0  0  0  0  0  # atno 5205 bound_to 1176
  -10.7771  -37.1844  -33.7617 LP  0  0  0  0  0  0  0  0  0  0  0  0  # atno 5206 bound_to 1176
   -2.8156  -33.8179  -36.7172 LP  0  0  0  0  0  0  0  0  0  0  0  0  # atno 5213 bound_to 1957
   -2.4426  -32.2286  -36.7607 LP  0  0  0  0  0  0  0  0  0  0  0  0  # atno 5214 bound_to 1957
  -14.4476  -28.6586  -37.5703 LP  0  0  0  0  0  0  0  0  0  0  0  0  # atno 5227 bound_to 1247
  -15.9783  -28.3716  -37.0793 LP  0  0  0  0  0  0  0  0  0  0  0  0  # atno 5228 bound_to 1247
  -13.7021  -25.0945  -40.1011 LP  0  0  0  0  0  0  0  0  0  0  0  0  # atno 5245 bound_to 1931
  -12.7320  -23.7835  -40.0190 LP  0  0  0  0  0  0  0  0  0  0  0  0  # atno 5246 bound_to 1931
  -12.8155  -23.2636  -30.6093 LP  0  0  0  0  0  0  0  0  0  0  0  0  # atno 5265 bound_to 1070
  -11.4555  -23.5777  -31.4568 LP  0  0  0  0  0  0  0  0  0  0  0  0  # atno 5266 bound_to 1070

$$$$
EZ_175a|Lisa_paper2_min|sdf|5|dock3
  -GOLD-  10202014283D 1   1.00000     0.00000

 48 51  0  0  0  0  0  0  0  0  1 V2000
   -4.5897  -32.9732  -34.8571 C   0  0  0  0  0  0  0  0  0  0  0  0
   -3.9064  -31.7798  -34.6130 C   0  0  0  0  0  0  0  0  0  0  0  0
   -5.9860  -32.9962  -34.9642 C   0  0  0  0  0  0  0  0  0  0  0  0
   -4.5905  -30.5683  -34.4674 C   0  0  0  0  0  0  0  0  0  0  0  0
  -11.8604  -26.9357  -36.7911 C   0  0  0  0  0  0  0  0  0  0  0  0
  -16.4754  -23.1492  -39.5605 C   0  0  0  0  0  0  0  0  0  0  0  0
  -10.8983  -27.7579  -36.2048 C   0  0  0  0  0  0  0  0  0  0  0  0
  -17.7778  -23.0458  -40.0490 C   0  0  0  0  0  0  0  0  0  0  0  0
  -11.1445  -25.1005  -35.3925 C   0  0  0  0  0  0  0  0  0  0  0  0
  -17.2727  -24.4957  -37.7197 C   0  0  0  0  0  0  0  0  0  0  0  0
  -10.1823  -25.9226  -34.8062 C   0  0  0  0  0  0  0  0  0  0  0  0
   -6.6895  -31.7884  -34.8203 C   0  0  0  0  0  0  0  0  0  0  0  0
   -5.9806  -30.6151  -34.5777 C   0  0  0  0  0  0  0  0  0  0  0  0
  -11.9836  -25.6069  -36.3850 C   0  0  0  0  0  0  0  0  0  0  0  0
  -16.2228  -23.8742  -38.3959 C   0  0  0  0  0  0  0  0  0  0  0  0
  -10.0592  -27.2514  -35.2123 C   0  0  0  0  0  0  0  0  0  0  0  0
  -18.8277  -23.6671  -39.3728 C   0  0  0  0  0  0  0  0  0  0  0  0
  -18.5751  -24.3921  -38.2082 C   0  0  0  0  0  0  0  0  0  0  0  0
   -8.1597  -30.2463  -34.6793 C   0  0  0  0  0  0  0  0  0  0  0  0
  -14.2757  -25.1045  -37.3404 C   0  0  0  0  0  0  0  0  0  0  0  0
   -9.2925  -25.3639  -33.7453 C   0  0  0  0  0  0  0  0  0  0  0  0
   -9.4128  -29.4692  -34.6470 C   0  0  0  0  0  0  0  0  0  0  0  0
   -8.0415  -31.5396  -34.8802 N   0  0  0  0  0  0  0  0  0  0  0  0
   -6.9462  -29.6452  -34.4921 N   0  0  0  0  0  0  0  0  0  0  0  0
  -12.9461  -24.7849  -36.9717 N   0  0  0  0  0  0  0  0  0  0  0  0
  -14.9015  -23.9795  -37.9011 N   0  0  0  0  0  0  0  0  0  0  0  0
  -14.7973  -26.2046  -37.1888 O   0  0  0  0  0  0  0  0  0  0  0  0
   -9.1212  -28.0713  -34.6482 O   0  0  0  0  0  0  0  0  0  0  0  0
  -20.4192  -23.4995  -40.0265 Cl  0  0  0  0  0  0  0  0  0  0  0  0
  -19.8339  -25.1822  -37.3250 Cl  0  0  0  0  0  0  0  0  0  0  0  0
   -4.0299  -33.8987  -34.9662 H   0  0  0  0  0  0  0  0  0  0  0  0
   -2.8221  -31.7919  -34.5332 H   0  0  0  0  0  0  0  0  0  0  0  0
   -6.5071  -33.9289  -35.1550 H   0  0  0  0  0  0  0  0  0  0  0  0
   -4.0618  -29.6410  -34.2789 H   0  0  0  0  0  0  0  0  0  0  0  0
  -12.5089  -27.3412  -37.5637 H   0  0  0  0  0  0  0  0  0  0  0  0
  -15.6643  -22.6625  -40.0960 H   0  0  0  0  0  0  0  0  0  0  0  0
  -10.8076  -28.7920  -36.5259 H   0  0  0  0  0  0  0  0  0  0  0  0
  -17.9559  -22.4779  -40.9589 H   0  0  0  0  0  0  0  0  0  0  0  0
  -11.2393  -24.0644  -35.0747 H   0  0  0  0  0  0  0  0  0  0  0  0
  -17.0697  -25.0587  -36.8110 H   0  0  0  0  0  0  0  0  0  0  0  0
   -9.7452  -25.5041  -32.7567 H   0  0  0  0  0  0  0  0  0  0  0  0
   -8.3107  -25.8533  -33.7526 H   0  0  0  0  0  0  0  0  0  0  0  0
   -9.1157  -24.2921  -33.8998 H   0  0  0  0  0  0  0  0  0  0  0  0
  -10.0583  -29.6817  -35.5181 H   0  0  0  0  0  0  0  0  0  0  0  0
  -10.0142  -29.6916  -33.7476 H   0  0  0  0  0  0  0  0  0  0  0  0
   -6.7858  -28.6610  -34.3216 H   0  0  0  0  0  0  0  0  0  0  0  0
  -12.6517  -23.8211  -37.1615 H   0  0  0  0  0  0  0  0  0  0  0  0
  -14.3413  -23.1332  -37.9628 H   0  0  0  0  0  0  0  0  0  0  0  0
  1  2  2  0  0  0  0
  1  3  1  0  0  0  0
  2  4  1  0  0  0  0
  3 12  2  0  0  0  0
  4 13  2  0  0  0  0
  5  7  2  0  0  0  0
  5 14  1  0  0  0  0
  6  8  1  0  0  0  0
  6 15  2  0  0  0  0
  7 16  1  0  0  0  0
  8 17  2  0  0  0  0
  9 11  1  0  0  0  0
  9 14  2  0  0  0  0
 10 15  1  0  0  0  0
 10 18  2  0  0  0  0
 11 16  2  0  0  0  0
 11 21  1  0  0  0  0
 12 13  1  0  0  0  0
 12 23  1  0  0  0  0
 13 24  1  0  0  0  0
 14 25  1  0  0  0  0
 15 26  1  0  0  0  0
 16 28  1  0  0  0  0
 17 18  1  0  0  0  0
 17 29  1  0  0  0  0
 18 30  1  0  0  0  0
 19 22  1  0  0  0  0
 19 23  2  0  0  0  0
 19 24  1  0  0  0  0
 20 25  1  0  0  0  0
 20 26  1  0  0  0  0
 20 27  2  0  0  0  0
 22 28  1  0  0  0  0
  1 31  1  0  0  0  0
  2 32  1  0  0  0  0
  3 33  1  0  0  0  0
  4 34  1  0  0  0  0
  5 35  1  0  0  0  0
  6 36  1  0  0  0  0
  7 37  1  0  0  0  0
  8 38  1  0  0  0  0
  9 39  1  0  0  0  0
 10 40  1  0  0  0  0
 21 41  1  0  0  0  0
 21 42  1  0  0  0  0
 21 43  1  0  0  0  0
 22 44  1  0  0  0  0
 22 45  1  0  0  0  0
 24 46  1  0  0  0  0
 25 47  1  0  0  0  0
 26 48  1  0  0  0  0
M  END
> <Name>
EZ_175a

> <SourceTag>
EZ_175a

> <Activity_sEH>
4.9

> <Activity_FLAP>
0.4

> <Gold.Version>
5.2

> <Gold.Id.Protein>
6HGV|6HGV_protein|mol2

> <Gold.PLP.Fitness>
90.0011

> <Gold.PLP.PLP>
-88.5714

> <Gold.PLP.part.hbond>
-8.5801

> <Gold.PLP.part.metal>
0.0000

> <Gold.PLP.part.buried>
8.2340

> <Gold.PLP.part.nonpolar>
-89.3453

> <Gold.PLP.part.repulsive>
0.0861

> <Gold.PLP.ligand.clash>
0.0027

> <Gold.PLP.ligand.torsion>
1.2611

> <Gold.PLP.Chemscore.Hbond>
0.6838

> <Gold.PLP.Chemscore.CHOScore>
0.0000

> <Gold.PLP.Chemscore.Metal>
0.0000

> <Gold.Chemscore.Hbonds>
donor molecule, donor type, donor heavy atom, donor atom, acceptor molecule, acceptor atom, score
      L1  H    25    47       P1   854  0.11
      L1  H    26    48       P1   854  0.02
      P1  H  1247  3847       L1    27  0.56

> <Gold.PLP.Chemscore.Internal.Correction>
0.4095

> <Gold.Protein.RotatedTorsions>
[ 3525  925  924  922 ] final  156.29 input   59.99 | X-H torsion
[ 3781 1176 1175 1172 ] final  -68.93 input   60.00 | X-H torsion
[ 4531 1957 1955 1953 ] final  -65.80 input   60.00 | X-H torsion
[ 3847 1247 1246 1244 ] final -167.36 input   60.00 | X-H torsion
[ 4507 1931 1930 1928 ] final -144.41 input   60.00 | X-H torsion
[ 3677 1070 1069 1066 ] final  -15.03 input   60.00 | X-H torsion

> <Gold.Protein.ActiveResidues>
 GLY266  PHE267  PRO268  GLU269  MET310  HIS334  ASP335  TRP336  GLY337  GLY338 
 MET339  LEU340  TRP342  TYR343  LEU358  ASN359  THR360  PRO361  ILE363  ALA365 
 MET369  SER370  PRO371  LEU372  GLU373  SER374  ILE375  LYS376  ALA377  ASN378 
 VAL380  PHE381  ASP382  TYR383  GLN384  PHE387  GLN388  LEU397  SER407  LEU408 
 PHE409  ARG410  LEU417  MET419  LEU428  PHE429  PHE459  TRP465  TYR466  ASN468 
 MET469  GLU470  ASN472  TRP473  ALA476  ASP496  PHE497  VAL498  LEU499  MET503 
 HIS524  TRP525 

> <Gold.Protein.RotatedAtoms>
   -2.0789  -30.2739  -29.7527 H   0  0  0  0  0  0  0  0  0  0  0  0  # atno 3525 bound_to 925 
  -12.7621  -23.4555  -30.7418 H   0  0  0  0  0  0  0  0  0  0  0  0  # atno 3677 bound_to 1070
  -10.1102  -36.5954  -34.1544 H   0  0  0  0  0  0  0  0  0  0  0  0  # atno 3781 bound_to 1176
  -14.8366  -27.3245  -37.9307 H   0  0  0  0  0  0  0  0  0  0  0  0  # atno 3847 bound_to 1247
  -13.2571  -24.1698  -40.4564 H   0  0  0  0  0  0  0  0  0  0  0  0  # atno 4507 bound_to 1931
   -1.8898  -32.2417  -36.8684 H   0  0  0  0  0  0  0  0  0  0  0  0  # atno 4531 bound_to 1957
   -3.1595  -29.7068  -30.8291 LP  0  0  0  0  0  0  0  0  0  0  0  0  # atno 5201 bound_to 925 
   -3.5105  -29.6997  -29.2343 LP  0  0  0  0  0  0  0  0  0  0  0  0  # atno 5202 bound_to 925 
   -9.3106  -36.5897  -32.7372 LP  0  0  0  0  0  0  0  0  0  0  0  0  # atno 5205 bound_to 1176
  -10.6894  -37.4500  -32.8965 LP  0  0  0  0  0  0  0  0  0  0  0  0  # atno 5206 bound_to 1176
   -1.5629  -33.8335  -36.9557 LP  0  0  0  0  0  0  0  0  0  0  0  0  # atno 5213 bound_to 1957
   -3.0857  -33.3250  -36.6574 LP  0  0  0  0  0  0  0  0  0  0  0  0  # atno 5214 bound_to 1957
  -14.6627  -28.8564  -37.4102 LP  0  0  0  0  0  0  0  0  0  0  0  0  # atno 5227 bound_to 1247
  -16.0676  -28.0615  -37.1629 LP  0  0  0  0  0  0  0  0  0  0  0  0  # atno 5228 bound_to 1247
  -12.4431  -24.1835  -39.0474 LP  0  0  0  0  0  0  0  0  0  0  0  0  # atno 5245 bound_to 1931
  -13.4932  -25.3837  -39.3986 LP  0  0  0  0  0  0  0  0  0  0  0  0  # atno 5246 bound_to 1931
  -11.2920  -23.4030  -31.4376 LP  0  0  0  0  0  0  0  0  0  0  0  0  # atno 5265 bound_to 1070
  -11.7943  -22.1719  -30.4896 LP  0  0  0  0  0  0  0  0  0  0  0  0  # atno 5266 bound_to 1070

$$$$
EZ_175a|Lisa_paper2_min|sdf|5|dock2
  -GOLD-  10202014283D 1   1.00000     0.00000

 48 51  0  0  0  0  0  0  0  0  1 V2000
   -4.2058  -31.6059  -34.9608 C   0  0  0  0  0  0  0  0  0  0  0  0
   -4.8233  -32.8373  -35.1914 C   0  0  0  0  0  0  0  0  0  0  0  0
   -4.9635  -30.4516  -34.7261 C   0  0  0  0  0  0  0  0  0  0  0  0
   -6.2166  -32.9612  -35.1957 C   0  0  0  0  0  0  0  0  0  0  0  0
  -12.4297  -27.1907  -36.4662 C   0  0  0  0  0  0  0  0  0  0  0  0
  -16.6616  -23.1575  -39.6927 C   0  0  0  0  0  0  0  0  0  0  0  0
  -11.5527  -28.0028  -35.7475 C   0  0  0  0  0  0  0  0  0  0  0  0
  -17.9709  -22.9585  -40.1307 C   0  0  0  0  0  0  0  0  0  0  0  0
  -11.3426  -25.2265  -35.5735 C   0  0  0  0  0  0  0  0  0  0  0  0
  -17.4824  -24.4628  -37.8326 C   0  0  0  0  0  0  0  0  0  0  0  0
  -10.4655  -26.0386  -34.8547 C   0  0  0  0  0  0  0  0  0  0  0  0
   -6.3647  -30.5576  -34.7272 C   0  0  0  0  0  0  0  0  0  0  0  0
   -6.9510  -31.7986  -34.9598 C   0  0  0  0  0  0  0  0  0  0  0  0
  -12.3246  -25.8024  -36.3793 C   0  0  0  0  0  0  0  0  0  0  0  0
  -16.4174  -23.9097  -38.5436 C   0  0  0  0  0  0  0  0  0  0  0  0
  -10.5705  -27.4269  -34.9416 C   0  0  0  0  0  0  0  0  0  0  0  0
  -19.0360  -23.5115  -39.4197 C   0  0  0  0  0  0  0  0  0  0  0  0
  -18.7916  -24.2637  -38.2707 C   0  0  0  0  0  0  0  0  0  0  0  0
   -8.4718  -30.2253  -34.6330 C   0  0  0  0  0  0  0  0  0  0  0  0
  -14.5901  -25.1665  -37.3187 C   0  0  0  0  0  0  0  0  0  0  0  0
   -9.4201  -25.4051  -33.9971 C   0  0  0  0  0  0  0  0  0  0  0  0
   -9.8186  -29.6393  -34.4993 C   0  0  0  0  0  0  0  0  0  0  0  0
   -7.3249  -29.5927  -34.5262 N   0  0  0  0  0  0  0  0  0  0  0  0
   -8.2991  -31.5562  -34.8937 N   0  0  0  0  0  0  0  0  0  0  0  0
  -13.2021  -24.9905  -37.0985 N   0  0  0  0  0  0  0  0  0  0  0  0
  -15.0892  -24.1120  -38.1000 N   0  0  0  0  0  0  0  0  0  0  0  0
  -15.2523  -26.1048  -36.8870 O   0  0  0  0  0  0  0  0  0  0  0  0
   -9.7188  -28.2379  -34.2438 O   0  0  0  0  0  0  0  0  0  0  0  0
  -20.6349  -23.2267  -40.0114 Cl  0  0  0  0  0  0  0  0  0  0  0  0
  -20.0690  -24.9725  -37.3460 Cl  0  0  0  0  0  0  0  0  0  0  0  0
   -3.1205  -31.5417  -34.9631 H   0  0  0  0  0  0  0  0  0  0  0  0
   -4.2099  -33.7168  -35.3722 H   0  0  0  0  0  0  0  0  0  0  0  0
   -4.4737  -29.4998  -34.5471 H   0  0  0  0  0  0  0  0  0  0  0  0
   -6.6975  -33.9162  -35.3734 H   0  0  0  0  0  0  0  0  0  0  0  0
  -13.1912  -27.6505  -37.0910 H   0  0  0  0  0  0  0  0  0  0  0  0
  -15.8389  -22.7235  -40.2550 H   0  0  0  0  0  0  0  0  0  0  0  0
  -11.6399  -29.0836  -35.8197 H   0  0  0  0  0  0  0  0  0  0  0  0
  -18.1425  -22.3708  -41.0292 H   0  0  0  0  0  0  0  0  0  0  0  0
  -11.2594  -24.1440  -35.5047 H   0  0  0  0  0  0  0  0  0  0  0  0
  -17.2856  -25.0474  -36.9362 H   0  0  0  0  0  0  0  0  0  0  0  0
   -9.8060  -25.2442  -32.9837 H   0  0  0  0  0  0  0  0  0  0  0  0
   -8.5239  -26.0346  -33.9339 H   0  0  0  0  0  0  0  0  0  0  0  0
   -9.1025  -24.4384  -34.4076 H   0  0  0  0  0  0  0  0  0  0  0  0
  -10.4255  -29.7751  -35.4124 H   0  0  0  0  0  0  0  0  0  0  0  0
  -10.3885  -30.0974  -33.6713 H   0  0  0  0  0  0  0  0  0  0  0  0
   -9.0325  -32.2422  -35.0157 H   0  0  0  0  0  0  0  0  0  0  0  0
  -12.7869  -24.1551  -37.5244 H   0  0  0  0  0  0  0  0  0  0  0  0
  -14.4185  -23.4033  -38.3863 H   0  0  0  0  0  0  0  0  0  0  0  0
  1  2  2  0  0  0  0
  1  3  1  0  0  0  0
  2  4  1  0  0  0  0
  3 12  2  0  0  0  0
  4 13  2  0  0  0  0
  5  7  2  0  0  0  0
  5 14  1  0  0  0  0
  6  8  1  0  0  0  0
  6 15  2  0  0  0  0
  7 16  1  0  0  0  0
  8 17  2  0  0  0  0
  9 11  1  0  0  0  0
  9 14  2  0  0  0  0
 10 15  1  0  0  0  0
 10 18  2  0  0  0  0
 11 16  2  0  0  0  0
 11 21  1  0  0  0  0
 12 13  1  0  0  0  0
 12 23  1  0  0  0  0
 13 24  1  0  0  0  0
 14 25  1  0  0  0  0
 15 26  1  0  0  0  0
 16 28  1  0  0  0  0
 17 18  1  0  0  0  0
 17 29  1  0  0  0  0
 18 30  1  0  0  0  0
 19 22  1  0  0  0  0
 19 23  2  0  0  0  0
 19 24  1  0  0  0  0
 20 25  1  0  0  0  0
 20 26  1  0  0  0  0
 20 27  2  0  0  0  0
 22 28  1  0  0  0  0
  1 31  1  0  0  0  0
  2 32  1  0  0  0  0
  3 33  1  0  0  0  0
  4 34  1  0  0  0  0
  5 35  1  0  0  0  0
  6 36  1  0  0  0  0
  7 37  1  0  0  0  0
  8 38  1  0  0  0  0
  9 39  1  0  0  0  0
 10 40  1  0  0  0  0
 21 41  1  0  0  0  0
 21 42  1  0  0  0  0
 21 43  1  0  0  0  0
 22 44  1  0  0  0  0
 22 45  1  0  0  0  0
 24 46  1  0  0  0  0
 25 47  1  0  0  0  0
 26 48  1  0  0  0  0
M  END
> <Name>
EZ_175a

> <SourceTag>
EZ_175a

> <Activity_sEH>
4.9

> <Activity_FLAP>
0.4

> <Gold.Version>
5.2

> <Gold.Id.Protein>
6HGV|6HGV_protein|mol2

> <Gold.PLP.Fitness>
89.7714

> <Gold.PLP.PLP>
-89.0153

> <Gold.PLP.part.hbond>
-7.9555

> <Gold.PLP.part.metal>
0.0000

> <Gold.PLP.part.buried>
8.6893

> <Gold.PLP.part.nonpolar>
-89.7756

> <Gold.PLP.part.repulsive>
0.0655

> <Gold.PLP.ligand.clash>
2.1126

> <Gold.PLP.ligand.torsion>
0.7925

> <Gold.PLP.Chemscore.Hbond>
0.9731

> <Gold.PLP.Chemscore.CHOScore>
0.0000

> <Gold.PLP.Chemscore.Metal>
0.0000

> <Gold.Chemscore.Hbonds>
donor molecule, donor type, donor heavy atom, donor atom, acceptor molecule, acceptor atom, score
      L1  H    25    47       P1  1931  0.28
      P1  H  1247  3847       L1    27  0.69

> <Gold.PLP.Chemscore.Internal.Correction>
0.4109

> <Gold.Protein.RotatedTorsions>
[ 3525  925  924  922 ] final   29.31 input   59.99 | X-H torsion
[ 3781 1176 1175 1172 ] final   13.77 input   60.00 | X-H torsion
[ 4531 1957 1955 1953 ] final   41.91 input   60.00 | X-H torsion
[ 3847 1247 1246 1244 ] final -111.90 input   60.00 | X-H torsion
[ 4507 1931 1930 1928 ] final -123.49 input   60.00 | X-H torsion
[ 3677 1070 1069 1066 ] final -148.63 input   60.00 | X-H torsion

> <Gold.Protein.ActiveResidues>
 GLY266  PHE267  PRO268  GLU269  MET310  HIS334  ASP335  TRP336  GLY337  GLY338 
 MET339  LEU340  TRP342  TYR343  LEU358  ASN359  THR360  PRO361  ILE363  ALA365 
 MET369  SER370  PRO371  LEU372  GLU373  SER374  ILE375  LYS376  ALA377  ASN378 
 VAL380  PHE381  ASP382  TYR383  GLN384  PHE387  GLN388  LEU397  SER407  LEU408 
 PHE409  ARG410  LEU417  MET419  LEU428  PHE429  PHE459  TRP465  TYR466  ASN468 
 MET469  GLU470  ASN472  TRP473  ALA476  ASP496  PHE497  VAL498  LEU499  MET503 
 HIS524  TRP525 

> <Gold.Protein.RotatedAtoms>
   -3.2551  -29.6672  -30.7802 H   0  0  0  0  0  0  0  0  0  0  0  0  # atno 3525 bound_to 925 
  -11.1826  -23.2170  -31.3825 H   0  0  0  0  0  0  0  0  0  0  0  0  # atno 3677 bound_to 1070
  -10.8296  -37.3322  -33.4688 H   0  0  0  0  0  0  0  0  0  0  0  0  # atno 3781 bound_to 1176
  -15.6525  -27.2761  -37.6290 H   0  0  0  0  0  0  0  0  0  0  0  0  # atno 3847 bound_to 1247
  -13.4593  -24.4425  -40.4742 H   0  0  0  0  0  0  0  0  0  0  0  0  # atno 4507 bound_to 1931
   -3.0989  -33.1241  -36.6538 H   0  0  0  0  0  0  0  0  0  0  0  0  # atno 4531 bound_to 1957
   -3.4300  -29.7412  -29.1640 LP  0  0  0  0  0  0  0  0  0  0  0  0  # atno 5201 bound_to 925 
   -2.0555  -30.2764  -29.8647 LP  0  0  0  0  0  0  0  0  0  0  0  0  # atno 5202 bound_to 925 
   -9.6144  -36.3490  -33.9211 LP  0  0  0  0  0  0  0  0  0  0  0  0  # atno 5205 bound_to 1176
   -9.6612  -36.9488  -32.4030 LP  0  0  0  0  0  0  0  0  0  0  0  0  # atno 5206 bound_to 1176
   -1.7068  -32.3186  -36.9021 LP  0  0  0  0  0  0  0  0  0  0  0  0  # atno 5213 bound_to 1957
   -1.7243  -33.9513  -36.9270 LP  0  0  0  0  0  0  0  0  0  0  0  0  # atno 5214 bound_to 1957
  -14.3031  -28.1663  -37.8154 LP  0  0  0  0  0  0  0  0  0  0  0  0  # atno 5227 bound_to 1247
  -15.6055  -28.8005  -37.0616 LP  0  0  0  0  0  0  0  0  0  0  0  0  # atno 5228 bound_to 1247
  -12.4361  -23.9584  -39.3052 LP  0  0  0  0  0  0  0  0  0  0  0  0  # atno 5245 bound_to 1931
  -13.2966  -25.3342  -39.1228 LP  0  0  0  0  0  0  0  0  0  0  0  0  # atno 5246 bound_to 1931
  -11.9992  -22.2028  -30.4064 LP  0  0  0  0  0  0  0  0  0  0  0  0  # atno 5265 bound_to 1070
  -12.6776  -23.6122  -30.8756 LP  0  0  0  0  0  0  0  0  0  0  0  0  # atno 5266 bound_to 1070

$$$$
EZ_175a|Lisa_paper2_min|sdf|5|dock5
  -GOLD-  10202014293D 1   1.00000     0.00000

 48 51  0  0  0  0  0  0  0  0  1 V2000
   -3.3065  -31.6593  -33.7032 C   0  0  0  0  0  0  0  0  0  0  0  0
   -3.0160  -30.3658  -33.2635 C   0  0  0  0  0  0  0  0  0  0  0  0
   -4.5497  -31.9664  -34.2704 C   0  0  0  0  0  0  0  0  0  0  0  0
   -3.9539  -29.3339  -33.3740 C   0  0  0  0  0  0  0  0  0  0  0  0
  -12.0367  -27.2835  -36.2035 C   0  0  0  0  0  0  0  0  0  0  0  0
  -16.4832  -24.4444  -38.8644 C   0  0  0  0  0  0  0  0  0  0  0  0
  -10.7787  -27.8512  -36.0026 C   0  0  0  0  0  0  0  0  0  0  0  0
  -17.5381  -24.2358  -39.7528 C   0  0  0  0  0  0  0  0  0  0  0  0
  -11.5359  -25.5902  -34.5545 C   0  0  0  0  0  0  0  0  0  0  0  0
  -18.0620  -24.7448  -37.0604 C   0  0  0  0  0  0  0  0  0  0  0  0
  -10.2778  -26.1580  -34.3536 C   0  0  0  0  0  0  0  0  0  0  0  0
   -5.5040  -30.9418  -34.3889 C   0  0  0  0  0  0  0  0  0  0  0  0
   -5.1851  -29.6626  -33.9418 C   0  0  0  0  0  0  0  0  0  0  0  0
  -12.4154  -26.1529  -35.4795 C   0  0  0  0  0  0  0  0  0  0  0  0
  -16.7452  -24.6990  -37.5181 C   0  0  0  0  0  0  0  0  0  0  0  0
   -9.8992  -27.2886  -35.0776 C   0  0  0  0  0  0  0  0  0  0  0  0
  -18.8550  -24.2816  -39.2950 C   0  0  0  0  0  0  0  0  0  0  0  0
  -19.1169  -24.5362  -37.9488 C   0  0  0  0  0  0  0  0  0  0  0  0
   -7.2342  -29.7504  -34.7716 C   0  0  0  0  0  0  0  0  0  0  0  0
  -14.4773  -25.6075  -36.8469 C   0  0  0  0  0  0  0  0  0  0  0  0
   -9.3490  -25.5427  -33.3596 C   0  0  0  0  0  0  0  0  0  0  0  0
   -8.5641  -29.2544  -35.1723 C   0  0  0  0  0  0  0  0  0  0  0  0
   -6.7807  -30.9770  -34.9011 N   0  0  0  0  0  0  0  0  0  0  0  0
   -6.3100  -28.9216  -34.1991 N   0  0  0  0  0  0  0  0  0  0  0  0
  -13.6738  -25.5852  -35.6808 N   0  0  0  0  0  0  0  0  0  0  0  0
  -15.6749  -24.9112  -36.6174 N   0  0  0  0  0  0  0  0  0  0  0  0
  -14.1663  -26.1565  -37.8991 O   0  0  0  0  0  0  0  0  0  0  0  0
   -8.6695  -27.8580  -34.8932 O   0  0  0  0  0  0  0  0  0  0  0  0
  -20.1179  -24.0120  -40.4441 Cl  0  0  0  0  0  0  0  0  0  0  0  0
  -20.7264  -24.6033  -37.3212 Cl  0  0  0  0  0  0  0  0  0  0  0  0
   -2.5565  -32.4402  -33.6043 H   0  0  0  0  0  0  0  0  0  0  0  0
   -2.0430  -30.1565  -32.8257 H   0  0  0  0  0  0  0  0  0  0  0  0
   -4.7649  -32.9745  -34.6097 H   0  0  0  0  0  0  0  0  0  0  0  0
   -3.7298  -28.3292  -33.0343 H   0  0  0  0  0  0  0  0  0  0  0  0
  -12.7139  -27.7304  -36.9269 H   0  0  0  0  0  0  0  0  0  0  0  0
  -15.4609  -24.4081  -39.2318 H   0  0  0  0  0  0  0  0  0  0  0  0
  -10.4899  -28.7319  -36.5700 H   0  0  0  0  0  0  0  0  0  0  0  0
  -17.3154  -24.0402  -40.7988 H   0  0  0  0  0  0  0  0  0  0  0  0
  -11.8297  -24.7085  -33.9892 H   0  0  0  0  0  0  0  0  0  0  0  0
  -18.2600  -24.9425  -36.0088 H   0  0  0  0  0  0  0  0  0  0  0  0
   -9.5020  -25.9882  -32.3696 H   0  0  0  0  0  0  0  0  0  0  0  0
   -8.3017  -25.6901  -33.6509 H   0  0  0  0  0  0  0  0  0  0  0  0
   -9.5096  -24.4599  -33.2840 H   0  0  0  0  0  0  0  0  0  0  0  0
   -8.7566  -29.4003  -36.2503 H   0  0  0  0  0  0  0  0  0  0  0  0
   -9.3779  -29.7724  -34.6341 H   0  0  0  0  0  0  0  0  0  0  0  0
   -6.4308  -27.9371  -34.0003 H   0  0  0  0  0  0  0  0  0  0  0  0
  -14.0696  -25.0853  -34.8777 H   0  0  0  0  0  0  0  0  0  0  0  0
  -15.7936  -24.5066  -35.6921 H   0  0  0  0  0  0  0  0  0  0  0  0
  1  2  2  0  0  0  0
  1  3  1  0  0  0  0
  2  4  1  0  0  0  0
  3 12  2  0  0  0  0
  4 13  2  0  0  0  0
  5  7  2  0  0  0  0
  5 14  1  0  0  0  0
  6  8  1  0  0  0  0
  6 15  2  0  0  0  0
  7 16  1  0  0  0  0
  8 17  2  0  0  0  0
  9 11  1  0  0  0  0
  9 14  2  0  0  0  0
 10 15  1  0  0  0  0
 10 18  2  0  0  0  0
 11 16  2  0  0  0  0
 11 21  1  0  0  0  0
 12 13  1  0  0  0  0
 12 23  1  0  0  0  0
 13 24  1  0  0  0  0
 14 25  1  0  0  0  0
 15 26  1  0  0  0  0
 16 28  1  0  0  0  0
 17 18  1  0  0  0  0
 17 29  1  0  0  0  0
 18 30  1  0  0  0  0
 19 22  1  0  0  0  0
 19 23  2  0  0  0  0
 19 24  1  0  0  0  0
 20 25  1  0  0  0  0
 20 26  1  0  0  0  0
 20 27  2  0  0  0  0
 22 28  1  0  0  0  0
  1 31  1  0  0  0  0
  2 32  1  0  0  0  0
  3 33  1  0  0  0  0
  4 34  1  0  0  0  0
  5 35  1  0  0  0  0
  6 36  1  0  0  0  0
  7 37  1  0  0  0  0
  8 38  1  0  0  0  0
  9 39  1  0  0  0  0
 10 40  1  0  0  0  0
 21 41  1  0  0  0  0
 21 42  1  0  0  0  0
 21 43  1  0  0  0  0
 22 44  1  0  0  0  0
 22 45  1  0  0  0  0
 24 46  1  0  0  0  0
 25 47  1  0  0  0  0
 26 48  1  0  0  0  0
M  END
> <Name>
EZ_175a

> <SourceTag>
EZ_175a

> <Activity_sEH>
4.9

> <Activity_FLAP>
0.4

> <Gold.Version>
5.2

> <Gold.Id.Protein>
6HGV|6HGV_protein|mol2

> <Gold.PLP.Fitness>
85.5151

> <Gold.PLP.PLP>
-77.9694

> <Gold.PLP.part.hbond>
-6.2157

> <Gold.PLP.part.metal>
0.0000

> <Gold.PLP.part.buried>
7.8714

> <Gold.PLP.part.nonpolar>
-79.2670

> <Gold.PLP.part.repulsive>
0.0628

> <Gold.PLP.ligand.clash>
0.0000

> <Gold.PLP.ligand.torsion>
0.8335

> <Gold.PLP.Chemscore.Hbond>
2.3960

> <Gold.PLP.Chemscore.CHOScore>
0.0000

> <Gold.PLP.Chemscore.Metal>
0.0000

> <Gold.Chemscore.Hbonds>
donor molecule, donor type, donor heavy atom, donor atom, acceptor molecule, acceptor atom, score
      L1  H    25    47       P1   853  0.46
      L1  H    26    48       P1   853  0.33
      P1  H  1247  3847       L1    27  0.61
      P1  H  1931  4507       L1    27  0.99

> <Gold.PLP.Chemscore.Internal.Correction>
0.3768

> <Gold.Protein.RotatedTorsions>
[ 3525  925  924  922 ] final   -6.55 input   59.99 | X-H torsion
[ 3781 1176 1175 1172 ] final  109.69 input   60.00 | X-H torsion
[ 4531 1957 1955 1953 ] final -126.51 input   60.00 | X-H torsion
[ 3847 1247 1246 1244 ] final  155.38 input   60.00 | X-H torsion
[ 4507 1931 1930 1928 ] final   -3.58 input   60.00 | X-H torsion
[ 3677 1070 1069 1066 ] final   88.29 input   60.00 | X-H torsion

> <Gold.Protein.ActiveResidues>
 GLY266  PHE267  PRO268  GLU269  MET310  HIS334  ASP335  TRP336  GLY337  GLY338 
 MET339  LEU340  TRP342  TYR343  LEU358  ASN359  THR360  PRO361  ILE363  ALA365 
 MET369  SER370  PRO371  LEU372  GLU373  SER374  ILE375  LYS376  ALA377  ASN378 
 VAL380  PHE381  ASP382  TYR383  GLN384  PHE387  GLN388  LEU397  SER407  LEU408 
 PHE409  ARG410  LEU417  MET419  LEU428  PHE429  PHE459  TRP465  TYR466  ASN468 
 MET469  GLU470  ASN472  TRP473  ALA476  ASP496  PHE497  VAL498  LEU499  MET503 
 HIS524  TRP525 

> <Gold.Protein.RotatedAtoms>
   -3.6521  -29.5302  -30.3851 H   0  0  0  0  0  0  0  0  0  0  0  0  # atno 3525 bound_to 925 
  -12.0440  -22.2228  -30.3928 H   0  0  0  0  0  0  0  0  0  0  0  0  # atno 3677 bound_to 1070
   -9.9810  -37.1743  -32.3786 H   0  0  0  0  0  0  0  0  0  0  0  0  # atno 3781 bound_to 1176
  -14.4209  -27.7545  -37.9294 H   0  0  0  0  0  0  0  0  0  0  0  0  # atno 3847 bound_to 1247
  -13.2942  -25.3306  -39.1285 H   0  0  0  0  0  0  0  0  0  0  0  0  # atno 4507 bound_to 1931
   -1.2760  -32.9504  -36.9973 H   0  0  0  0  0  0  0  0  0  0  0  0  # atno 4531 bound_to 1957
   -2.9254  -29.9763  -28.9991 LP  0  0  0  0  0  0  0  0  0  0  0  0  # atno 5201 bound_to 925 
   -2.1604  -30.1792  -30.4275 LP  0  0  0  0  0  0  0  0  0  0  0  0  # atno 5202 bound_to 925 
  -10.7559  -37.1524  -33.8093 LP  0  0  0  0  0  0  0  0  0  0  0  0  # atno 5205 bound_to 1176
   -9.3743  -36.3043  -33.6127 LP  0  0  0  0  0  0  0  0  0  0  0  0  # atno 5206 bound_to 1176
   -2.4809  -34.0234  -36.7844 LP  0  0  0  0  0  0  0  0  0  0  0  0  # atno 5213 bound_to 1957
   -2.7858  -32.4215  -36.6988 LP  0  0  0  0  0  0  0  0  0  0  0  0  # atno 5214 bound_to 1957
  -15.2013  -28.9575  -37.1602 LP  0  0  0  0  0  0  0  0  0  0  0  0  # atno 5227 bound_to 1247
  -15.9477  -27.5274  -37.4143 LP  0  0  0  0  0  0  0  0  0  0  0  0  # atno 5228 bound_to 1247
  -13.4631  -24.4390  -40.4793 LP  0  0  0  0  0  0  0  0  0  0  0  0  # atno 5245 bound_to 1931
  -12.4359  -23.9592  -39.3040 LP  0  0  0  0  0  0  0  0  0  0  0  0  # atno 5246 bound_to 1931
  -12.6511  -23.6428  -30.9060 LP  0  0  0  0  0  0  0  0  0  0  0  0  # atno 5265 bound_to 1070
  -11.1583  -23.1734  -31.3726 LP  0  0  0  0  0  0  0  0  0  0  0  0  # atno 5266 bound_to 1070

$$$$
EZ_175a|Lisa_paper2_min|sdf|5|dock9
  -GOLD-  10202014303D 1   1.00000     0.00000

 48 51  0  0  0  0  0  0  0  0  1 V2000
   -6.6002  -33.7017  -35.7102 C   0  0  0  0  0  0  0  0  0  0  0  0
   -7.9012  -33.9323  -36.1633 C   0  0  0  0  0  0  0  0  0  0  0  0
   -6.2294  -32.4578  -35.1840 C   0  0  0  0  0  0  0  0  0  0  0  0
   -8.8773  -32.9319  -36.1076 C   0  0  0  0  0  0  0  0  0  0  0  0
  -11.4588  -25.8467  -36.4139 C   0  0  0  0  0  0  0  0  0  0  0  0
  -17.3292  -23.6092  -39.5460 C   0  0  0  0  0  0  0  0  0  0  0  0
  -10.5511  -26.5216  -35.5979 C   0  0  0  0  0  0  0  0  0  0  0  0
  -18.6666  -23.3018  -39.7961 C   0  0  0  0  0  0  0  0  0  0  0  0
  -13.2119  -27.3522  -35.7090 C   0  0  0  0  0  0  0  0  0  0  0  0
  -17.9901  -24.9267  -37.6317 C   0  0  0  0  0  0  0  0  0  0  0  0
  -12.3042  -28.0272  -34.8930 C   0  0  0  0  0  0  0  0  0  0  0  0
   -7.1973  -31.4411  -35.1208 C   0  0  0  0  0  0  0  0  0  0  0  0
   -8.4854  -31.7012  -35.5800 C   0  0  0  0  0  0  0  0  0  0  0  0
  -12.7894  -26.2620  -36.4695 C   0  0  0  0  0  0  0  0  0  0  0  0
  -16.9910  -24.4218  -38.4638 C   0  0  0  0  0  0  0  0  0  0  0  0
  -10.9737  -27.6119  -34.8374 C   0  0  0  0  0  0  0  0  0  0  0  0
  -19.6657  -23.8066  -38.9639 C   0  0  0  0  0  0  0  0  0  0  0  0
  -19.3275  -24.6191  -37.8818 C   0  0  0  0  0  0  0  0  0  0  0  0
   -8.2900  -29.6304  -34.8257 C   0  0  0  0  0  0  0  0  0  0  0  0
  -15.1081  -25.5281  -37.1793 C   0  0  0  0  0  0  0  0  0  0  0  0
  -12.7738  -29.1921  -34.0856 C   0  0  0  0  0  0  0  0  0  0  0  0
   -8.7127  -28.2593  -34.4845 C   0  0  0  0  0  0  0  0  0  0  0  0
   -7.0948  -30.1500  -34.6560 N   0  0  0  0  0  0  0  0  0  0  0  0
   -9.1625  -30.5257  -35.3790 N   0  0  0  0  0  0  0  0  0  0  0  0
  -13.6970  -25.5866  -37.2859 N   0  0  0  0  0  0  0  0  0  0  0  0
  -15.6344  -24.7341  -38.2109 N   0  0  0  0  0  0  0  0  0  0  0  0
  -15.7669  -26.0910  -36.3108 O   0  0  0  0  0  0  0  0  0  0  0  0
  -10.0705  -28.2621  -34.0425 O   0  0  0  0  0  0  0  0  0  0  0  0
  -21.3035  -23.3871  -39.3243 Cl  0  0  0  0  0  0  0  0  0  0  0  0
  -20.5196  -25.2729  -36.8139 Cl  0  0  0  0  0  0  0  0  0  0  0  0
   -5.8638  -34.4995  -35.7661 H   0  0  0  0  0  0  0  0  0  0  0  0
   -8.1606  -34.9075  -36.5684 H   0  0  0  0  0  0  0  0  0  0  0  0
   -5.2161  -32.2894  -34.8338 H   0  0  0  0  0  0  0  0  0  0  0  0
   -9.8876  -33.1094  -36.4578 H   0  0  0  0  0  0  0  0  0  0  0  0
  -11.1183  -24.9983  -37.0022 H   0  0  0  0  0  0  0  0  0  0  0  0
  -16.5586  -23.2119  -40.2016 H   0  0  0  0  0  0  0  0  0  0  0  0
   -9.5161  -26.1928  -35.5591 H   0  0  0  0  0  0  0  0  0  0  0  0
  -18.9119  -22.6682  -40.6449 H   0  0  0  0  0  0  0  0  0  0  0  0
  -14.2492  -27.6773  -35.7513 H   0  0  0  0  0  0  0  0  0  0  0  0
  -17.7199  -25.5589  -36.7882 H   0  0  0  0  0  0  0  0  0  0  0  0
  -12.6637  -30.1206  -34.6581 H   0  0  0  0  0  0  0  0  0  0  0  0
  -12.2015  -29.2859  -33.1544 H   0  0  0  0  0  0  0  0  0  0  0  0
  -13.8278  -29.0793  -33.8022 H   0  0  0  0  0  0  0  0  0  0  0  0
   -8.0952  -27.8200  -33.6806 H   0  0  0  0  0  0  0  0  0  0  0  0
   -8.6366  -27.5760  -35.3491 H   0  0  0  0  0  0  0  0  0  0  0  0
  -10.1346  -30.3549  -35.6009 H   0  0  0  0  0  0  0  0  0  0  0  0
  -13.2881  -25.0628  -38.0670 H   0  0  0  0  0  0  0  0  0  0  0  0
  -14.9633  -24.3314  -38.8601 H   0  0  0  0  0  0  0  0  0  0  0  0
  1  2  2  0  0  0  0
  1  3  1  0  0  0  0
  2  4  1  0  0  0  0
  3 12  2  0  0  0  0
  4 13  2  0  0  0  0
  5  7  2  0  0  0  0
  5 14  1  0  0  0  0
  6  8  1  0  0  0  0
  6 15  2  0  0  0  0
  7 16  1  0  0  0  0
  8 17  2  0  0  0  0
  9 11  1  0  0  0  0
  9 14  2  0  0  0  0
 10 15  1  0  0  0  0
 10 18  2  0  0  0  0
 11 16  2  0  0  0  0
 11 21  1  0  0  0  0
 12 13  1  0  0  0  0
 12 23  1  0  0  0  0
 13 24  1  0  0  0  0
 14 25  1  0  0  0  0
 15 26  1  0  0  0  0
 16 28  1  0  0  0  0
 17 18  1  0  0  0  0
 17 29  1  0  0  0  0
 18 30  1  0  0  0  0
 19 22  1  0  0  0  0
 19 23  2  0  0  0  0
 19 24  1  0  0  0  0
 20 25  1  0  0  0  0
 20 26  1  0  0  0  0
 20 27  2  0  0  0  0
 22 28  1  0  0  0  0
  1 31  1  0  0  0  0
  2 32  1  0  0  0  0
  3 33  1  0  0  0  0
  4 34  1  0  0  0  0
  5 35  1  0  0  0  0
  6 36  1  0  0  0  0
  7 37  1  0  0  0  0
  8 38  1  0  0  0  0
  9 39  1  0  0  0  0
 10 40  1  0  0  0  0
 21 41  1  0  0  0  0
 21 42  1  0  0  0  0
 21 43  1  0  0  0  0
 22 44  1  0  0  0  0
 22 45  1  0  0  0  0
 24 46  1  0  0  0  0
 25 47  1  0  0  0  0
 26 48  1  0  0  0  0
M  END
> <Name>
EZ_175a

> <SourceTag>
EZ_175a

> <Activity_sEH>
4.9

> <Activity_FLAP>
0.4

> <Gold.Version>
5.2

> <Gold.Id.Protein>
6HGV|6HGV_protein|mol2

> <Gold.PLP.Fitness>
82.8265

> <Gold.PLP.PLP>
-79.8961

> <Gold.PLP.part.hbond>
-8.0452

> <Gold.PLP.part.metal>
0.0000

> <Gold.PLP.part.buried>
3.7259

> <Gold.PLP.part.nonpolar>
-76.2673

> <Gold.PLP.part.repulsive>
0.0991

> <Gold.PLP.ligand.clash>
0.0000

> <Gold.PLP.ligand.torsion>
1.2078

> <Gold.PLP.Chemscore.Hbond>
1.1262

> <Gold.PLP.Chemscore.CHOScore>
0.0000

> <Gold.PLP.Chemscore.Metal>
0.0000

> <Gold.Chemscore.Hbonds>
donor molecule, donor type, donor heavy atom, donor atom, acceptor molecule, acceptor atom, score
      L1  H    25    47       P1  1931  0.98
      P1  H  1247  3847       L1    27  0.15

> <Gold.PLP.Chemscore.Internal.Correction>
0.3768

> <Gold.Protein.RotatedTorsions>
[ 3525  925  924  922 ] final  -40.27 input   59.99 | X-H torsion
[ 3781 1176 1175 1172 ] final  176.87 input   60.00 | X-H torsion
[ 4531 1957 1955 1953 ] final    0.22 input   60.00 | X-H torsion
[ 3847 1247 1246 1244 ] final  -54.23 input   60.00 | X-H torsion
[ 4507 1931 1930 1928 ] final -149.99 input   60.00 | X-H torsion
[ 3677 1070 1069 1066 ] final   21.52 input   60.00 | X-H torsion

> <Gold.Protein.ActiveResidues>
 GLY266  PHE267  PRO268  GLU269  MET310  HIS334  ASP335  TRP336  GLY337  GLY338 
 MET339  LEU340  TRP342  TYR343  LEU358  ASN359  THR360  PRO361  ILE363  ALA365 
 MET369  SER370  PRO371  LEU372  GLU373  SER374  ILE375  LYS376  ALA377  ASN378 
 VAL380  PHE381  ASP382  TYR383  GLN384  PHE387  GLN388  LEU397  SER407  LEU408 
 PHE409  ARG410  LEU417  MET419  LEU428  PHE429  PHE459  TRP465  TYR466  ASN468 
 MET469  GLU470  ASN472  TRP473  ALA476  ASP496  PHE497  VAL498  LEU499  MET503 
 HIS524  TRP525 

> <Gold.Protein.RotatedAtoms>
   -3.7713  -29.5267  -29.8553 H   0  0  0  0  0  0  0  0  0  0  0  0  # atno 3525 bound_to 925 
  -12.7740  -22.9480  -30.4469 H   0  0  0  0  0  0  0  0  0  0  0  0  # atno 3677 bound_to 1070
   -9.2846  -36.5453  -32.8175 H   0  0  0  0  0  0  0  0  0  0  0  0  # atno 3781 bound_to 1176
  -16.0676  -27.9571  -37.2055 H   0  0  0  0  0  0  0  0  0  0  0  0  # atno 3847 bound_to 1247
  -13.1977  -24.1049  -40.4329 H   0  0  0  0  0  0  0  0  0  0  0  0  # atno 4507 bound_to 1931
   -2.8593  -32.5034  -36.6886 H   0  0  0  0  0  0  0  0  0  0  0  0  # atno 4531 bound_to 1957
   -2.4435  -30.1708  -29.1697 LP  0  0  0  0  0  0  0  0  0  0  0  0  # atno 5201 bound_to 925 
   -2.5221  -29.9882  -30.7905 LP  0  0  0  0  0  0  0  0  0  0  0  0  # atno 5202 bound_to 925 
  -10.6393  -37.4469  -32.8153 LP  0  0  0  0  0  0  0  0  0  0  0  0  # atno 5205 bound_to 1176
  -10.1922  -36.6432  -34.1647 LP  0  0  0  0  0  0  0  0  0  0  0  0  # atno 5206 bound_to 1176
   -1.2962  -32.8420  -36.9892 LP  0  0  0  0  0  0  0  0  0  0  0  0  # atno 5213 bound_to 1957
   -2.3761  -34.0530  -36.8049 LP  0  0  0  0  0  0  0  0  0  0  0  0  # atno 5214 bound_to 1957
  -14.7388  -27.3787  -37.9456 LP  0  0  0  0  0  0  0  0  0  0  0  0  # atno 5227 bound_to 1247
  -14.7518  -28.9022  -37.3578 LP  0  0  0  0  0  0  0  0  0  0  0  0  # atno 5228 bound_to 1247
  -12.4591  -24.2538  -38.9906 LP  0  0  0  0  0  0  0  0  0  0  0  0  # atno 5245 bound_to 1931
  -13.5371  -25.3789  -39.4791 LP  0  0  0  0  0  0  0  0  0  0  0  0  # atno 5246 bound_to 1931
  -11.7567  -23.7679  -31.4170 LP  0  0  0  0  0  0  0  0  0  0  0  0  # atno 5265 bound_to 1070
  -11.3175  -22.3181  -30.8072 LP  0  0  0  0  0  0  0  0  0  0  0  0  # atno 5266 bound_to 1070

$$$$
EZ_18b|Lisa_paper2_min|sdf|6|dock7
  -GOLD-  10202014333D 1   1.00000     0.00000

 60 63  0  0  0  0  0  0  0  0  1 V2000
  -11.0608  -33.8211  -35.2324 C   0  0  0  0  0  0  0  0  0  0  0  0
   -9.7437  -34.2414  -35.0588 C   0  0  0  0  0  0  0  0  0  0  0  0
  -11.3858  -32.4618  -35.2061 C   0  0  0  0  0  0  0  0  0  0  0  0
   -8.7101  -33.3205  -34.8542 C   0  0  0  0  0  0  0  0  0  0  0  0
  -11.7573  -26.8988  -37.1123 C   0  0  0  0  0  0  0  0  0  0  0  0
  -12.8458  -25.7754  -35.2712 C   0  0  0  0  0  0  0  0  0  0  0  0
  -17.4545  -23.7627  -39.7637 C   0  0  0  0  0  0  0  0  0  0  0  0
  -10.8012  -27.4105  -36.2349 C   0  0  0  0  0  0  0  0  0  0  0  0
  -11.8897  -26.2871  -34.3938 C   0  0  0  0  0  0  0  0  0  0  0  0
  -18.7949  -23.4324  -39.9631 C   0  0  0  0  0  0  0  0  0  0  0  0
  -18.0419  -24.9164  -37.7240 C   0  0  0  0  0  0  0  0  0  0  0  0
  -10.3593  -31.5228  -35.0011 C   0  0  0  0  0  0  0  0  0  0  0  0
   -9.0449  -31.9589  -34.8291 C   0  0  0  0  0  0  0  0  0  0  0  0
  -12.7796  -26.0813  -36.6304 C   0  0  0  0  0  0  0  0  0  0  0  0
  -17.0779  -24.5047  -38.6442 C   0  0  0  0  0  0  0  0  0  0  0  0
  -10.8674  -27.1046  -34.8757 C   0  0  0  0  0  0  0  0  0  0  0  0
  -19.7589  -23.8442  -39.0427 C   0  0  0  0  0  0  0  0  0  0  0  0
  -19.3824  -24.5861  -37.9232 C   0  0  0  0  0  0  0  0  0  0  0  0
   -9.2052  -29.7556  -34.7315 C   0  0  0  0  0  0  0  0  0  0  0  0
   -6.9224  -30.6986  -34.4436 C   0  0  0  0  0  0  0  0  0  0  0  0
  -15.1236  -25.3847  -37.2933 C   0  0  0  0  0  0  0  0  0  0  0  0
   -4.4991  -31.1319  -35.7090 C   0  0  0  0  0  0  0  0  0  0  0  0
   -4.3991  -31.3560  -33.2091 C   0  0  0  0  0  0  0  0  0  0  0  0
   -4.4839  -33.4136  -34.6469 C   0  0  0  0  0  0  0  0  0  0  0  0
   -8.8451  -28.3250  -34.5987 C   0  0  0  0  0  0  0  0  0  0  0  0
   -4.9380  -31.9618  -34.5034 C   0  0  0  0  0  0  0  0  0  0  0  0
  -10.4369  -30.1577  -34.9371 N   0  0  0  0  0  0  0  0  0  0  0  0
   -8.3023  -30.7971  -34.6546 N   0  0  0  0  0  0  0  0  0  0  0  0
  -13.7358  -25.5693  -37.5079 N   0  0  0  0  0  0  0  0  0  0  0  0
  -15.7182  -24.8400  -38.4427 N   0  0  0  0  0  0  0  0  0  0  0  0
   -6.3766  -29.6167  -34.3027 O   0  0  0  0  0  0  0  0  0  0  0  0
  -15.7125  -25.6623  -36.2534 O   0  0  0  0  0  0  0  0  0  0  0  0
   -9.9295  -27.6066  -34.0148 O   0  0  0  0  0  0  0  0  0  0  0  0
   -6.3665  -31.9364  -34.4290 O   0  0  0  0  0  0  0  0  0  0  0  0
  -21.4024  -23.4009  -39.3439 Cl  0  0  0  0  0  0  0  0  0  0  0  0
  -20.5298  -25.1231  -36.7467 Cl  0  0  0  0  0  0  0  0  0  0  0  0
  -11.8448  -34.5568  -35.3897 H   0  0  0  0  0  0  0  0  0  0  0  0
   -9.5135  -35.3037  -35.0823 H   0  0  0  0  0  0  0  0  0  0  0  0
  -12.4143  -32.1418  -35.3416 H   0  0  0  0  0  0  0  0  0  0  0  0
   -7.6941  -33.6732  -34.7217 H   0  0  0  0  0  0  0  0  0  0  0  0
  -11.6961  -27.1438  -38.1697 H   0  0  0  0  0  0  0  0  0  0  0  0
  -13.6379  -25.1392  -34.8843 H   0  0  0  0  0  0  0  0  0  0  0  0
  -16.7115  -23.4381  -40.4877 H   0  0  0  0  0  0  0  0  0  0  0  0
  -10.0074  -28.0469  -36.6164 H   0  0  0  0  0  0  0  0  0  0  0  0
  -11.9466  -26.0452  -33.3358 H   0  0  0  0  0  0  0  0  0  0  0  0
  -19.0704  -22.8548  -40.8419 H   0  0  0  0  0  0  0  0  0  0  0  0
  -17.7419  -25.4939  -36.8518 H   0  0  0  0  0  0  0  0  0  0  0  0
   -4.8838  -31.5634  -36.6399 H   0  0  0  0  0  0  0  0  0  0  0  0
   -4.8485  -30.0969  -35.6350 H   0  0  0  0  0  0  0  0  0  0  0  0
   -3.4069  -31.1228  -35.8007 H   0  0  0  0  0  0  0  0  0  0  0  0
   -4.7116  -31.9483  -32.3415 H   0  0  0  0  0  0  0  0  0  0  0  0
   -4.7987  -30.3472  -33.0544 H   0  0  0  0  0  0  0  0  0  0  0  0
   -3.3058  -31.2988  -33.2144 H   0  0  0  0  0  0  0  0  0  0  0  0
   -4.7986  -34.0091  -33.7822 H   0  0  0  0  0  0  0  0  0  0  0  0
   -4.8914  -33.8761  -35.5517 H   0  0  0  0  0  0  0  0  0  0  0  0
   -3.3904  -33.4780  -34.6851 H   0  0  0  0  0  0  0  0  0  0  0  0
   -7.9562  -28.1822  -33.9626 H   0  0  0  0  0  0  0  0  0  0  0  0
   -8.6158  -27.8705  -35.5764 H   0  0  0  0  0  0  0  0  0  0  0  0
  -13.3877  -25.2895  -38.4310 H   0  0  0  0  0  0  0  0  0  0  0  0
  -15.1013  -24.6627  -39.2314 H   0  0  0  0  0  0  0  0  0  0  0  0
  1  2  2  0  0  0  0
  1  3  1  0  0  0  0
  2  4  1  0  0  0  0
  3 12  2  0  0  0  0
  4 13  2  0  0  0  0
  5  8  1  0  0  0  0
  5 14  2  0  0  0  0
  6  9  2  0  0  0  0
  6 14  1  0  0  0  0
  7 10  1  0  0  0  0
  7 15  2  0  0  0  0
  8 16  2  0  0  0  0
  9 16  1  0  0  0  0
 10 17  2  0  0  0  0
 11 15  1  0  0  0  0
 11 18  2  0  0  0  0
 12 13  1  0  0  0  0
 12 27  1  0  0  0  0
 13 28  1  0  0  0  0
 14 29  1  0  0  0  0
 15 30  1  0  0  0  0
 16 33  1  0  0  0  0
 17 18  1  0  0  0  0
 17 35  1  0  0  0  0
 18 36  1  0  0  0  0
 19 25  1  0  0  0  0
 19 27  2  0  0  0  0
 19 28  1  0  0  0  0
 20 28  1  0  0  0  0
 20 31  2  0  0  0  0
 20 34  1  0  0  0  0
 21 29  1  0  0  0  0
 21 30  1  0  0  0  0
 21 32  2  0  0  0  0
 22 26  1  0  0  0  0
 23 26  1  0  0  0  0
 24 26  1  0  0  0  0
 25 33  1  0  0  0  0
 26 34  1  0  0  0  0
  1 37  1  0  0  0  0
  2 38  1  0  0  0  0
  3 39  1  0  0  0  0
  4 40  1  0  0  0  0
  5 41  1  0  0  0  0
  6 42  1  0  0  0  0
  7 43  1  0  0  0  0
  8 44  1  0  0  0  0
  9 45  1  0  0  0  0
 10 46  1  0  0  0  0
 11 47  1  0  0  0  0
 22 48  1  0  0  0  0
 22 49  1  0  0  0  0
 22 50  1  0  0  0  0
 23 51  1  0  0  0  0
 23 52  1  0  0  0  0
 23 53  1  0  0  0  0
 24 54  1  0  0  0  0
 24 55  1  0  0  0  0
 24 56  1  0  0  0  0
 25 57  1  0  0  0  0
 25 58  1  0  0  0  0
 29 59  1  0  0  0  0
 30 60  1  0  0  0  0
M  END
> <Name>
EZ_18b

> <SourceTag>
EZ_18b

> <Activity_FLAP>
100

> <Activity_sEH>
0.63

> <Gold.Version>
5.2

> <Gold.Id.Protein>
6HGV|6HGV_protein|mol2

> <Gold.PLP.Fitness>
97.1368

> <Gold.PLP.PLP>
-95.5334

> <Gold.PLP.part.hbond>
-7.7720

> <Gold.PLP.part.metal>
0.0000

> <Gold.PLP.part.buried>
2.6090

> <Gold.PLP.part.nonpolar>
-91.9294

> <Gold.PLP.part.repulsive>
0.1276

> <Gold.PLP.ligand.clash>
1.4709

> <Gold.PLP.ligand.torsion>
1.0726

> <Gold.PLP.Chemscore.Hbond>
1.1177

> <Gold.PLP.Chemscore.CHOScore>
0.0000

> <Gold.PLP.Chemscore.Metal>
0.0000

> <Gold.Chemscore.Hbonds>
donor molecule, donor type, donor heavy atom, donor atom, acceptor molecule, acceptor atom, score
      L1  H    29    59       P1  1931  0.87
      L1  H    30    60       P1  1931  0.16
      P1  H  1256  3854       L1    27  0.09

> <Gold.PLP.Chemscore.Internal.Correction>
0.4138

> <Gold.Protein.RotatedTorsions>
[ 3525  925  924  922 ] final  101.02 input   59.99 | X-H torsion
[ 3781 1176 1175 1172 ] final  -47.21 input   60.00 | X-H torsion
[ 4531 1957 1955 1953 ] final   65.28 input   60.00 | X-H torsion
[ 3847 1247 1246 1244 ] final  -59.59 input   60.00 | X-H torsion
[ 4507 1931 1930 1928 ] final  153.64 input   60.00 | X-H torsion
[ 3677 1070 1069 1066 ] final  120.63 input   60.00 | X-H torsion

> <Gold.Protein.ActiveResidues>
 GLY266  PHE267  PRO268  GLU269  MET310  HIS334  ASP335  TRP336  GLY337  GLY338 
 MET339  LEU340  TRP342  TYR343  LEU358  ASN359  THR360  PRO361  ILE363  ALA365 
 MET369  SER370  PRO371  LEU372  GLU373  SER374  ILE375  LYS376  ALA377  ASN378 
 VAL380  PHE381  ASP382  TYR383  GLN384  PHE387  GLN388  LEU397  SER407  LEU408 
 PHE409  ARG410  LEU417  MET419  LEU428  PHE429  PHE459  TRP465  TYR466  ASN468 
 MET469  GLU470  ASN472  TRP473  ALA476  ASP496  PHE497  VAL498  LEU499  MET503 
 HIS524  TRP525 

> <Gold.Protein.RotatedAtoms>
   -2.2726  -30.1134  -30.5838 H   0  0  0  0  0  0  0  0  0  0  0  0  # atno 3525 bound_to 925 
  -11.5717  -22.2013  -30.6128 H   0  0  0  0  0  0  0  0  0  0  0  0  # atno 3677 bound_to 1070
  -10.3975  -36.7980  -34.1251 H   0  0  0  0  0  0  0  0  0  0  0  0  # atno 3781 bound_to 1176
  -16.0631  -27.8761  -37.2383 H   0  0  0  0  0  0  0  0  0  0  0  0  # atno 3847 bound_to 1247
  -12.6234  -23.7793  -39.8446 H   0  0  0  0  0  0  0  0  0  0  0  0  # atno 4507 bound_to 1931
   -3.0274  -33.4961  -36.6738 H   0  0  0  0  0  0  0  0  0  0  0  0  # atno 4531 bound_to 1957
   -3.7358  -29.5131  -30.2005 LP  0  0  0  0  0  0  0  0  0  0  0  0  # atno 5201 bound_to 925 
   -2.7391  -30.0551  -29.0259 LP  0  0  0  0  0  0  0  0  0  0  0  0  # atno 5202 bound_to 925 
   -9.2388  -36.4267  -33.0445 LP  0  0  0  0  0  0  0  0  0  0  0  0  # atno 5205 bound_to 1176
  -10.4719  -37.4089  -32.6187 LP  0  0  0  0  0  0  0  0  0  0  0  0  # atno 5206 bound_to 1176
   -2.0618  -32.1959  -36.8325 LP  0  0  0  0  0  0  0  0  0  0  0  0  # atno 5213 bound_to 1957
   -1.4414  -33.6995  -36.9764 LP  0  0  0  0  0  0  0  0  0  0  0  0  # atno 5214 bound_to 1957
  -14.6696  -27.4328  -37.9521 LP  0  0  0  0  0  0  0  0  0  0  0  0  # atno 5227 bound_to 1247
  -14.8256  -28.9297  -37.3183 LP  0  0  0  0  0  0  0  0  0  0  0  0  # atno 5228 bound_to 1247
  -12.8915  -25.0128  -38.8177 LP  0  0  0  0  0  0  0  0  0  0  0  0  # atno 5245 bound_to 1931
  -13.6830  -24.9477  -40.2445 LP  0  0  0  0  0  0  0  0  0  0  0  0  # atno 5246 bound_to 1931
  -12.8167  -23.2491  -30.6004 LP  0  0  0  0  0  0  0  0  0  0  0  0  # atno 5265 bound_to 1070
  -11.4684  -23.5888  -31.4568 LP  0  0  0  0  0  0  0  0  0  0  0  0  # atno 5266 bound_to 1070

$$$$
EZ_18b|Lisa_paper2_min|sdf|6|dock6
  -GOLD-  10202014333D 1   1.00000     0.00000

 60 63  0  0  0  0  0  0  0  0  1 V2000
  -10.6034  -34.3854  -35.5210 C   0  0  0  0  0  0  0  0  0  0  0  0
   -9.2500  -34.6359  -35.3049 C   0  0  0  0  0  0  0  0  0  0  0  0
  -11.1063  -33.0823  -35.4645 C   0  0  0  0  0  0  0  0  0  0  0  0
   -8.3559  -33.5961  -35.0263 C   0  0  0  0  0  0  0  0  0  0  0  0
  -13.4659  -26.8469  -35.4432 C   0  0  0  0  0  0  0  0  0  0  0  0
  -11.6234  -26.2101  -36.8701 C   0  0  0  0  0  0  0  0  0  0  0  0
  -17.4426  -23.5235  -39.7589 C   0  0  0  0  0  0  0  0  0  0  0  0
  -12.5772  -27.4933  -34.5840 C   0  0  0  0  0  0  0  0  0  0  0  0
  -10.7346  -26.8564  -36.0110 C   0  0  0  0  0  0  0  0  0  0  0  0
  -18.7703  -23.1904  -40.0270 C   0  0  0  0  0  0  0  0  0  0  0  0
  -18.1601  -24.8875  -37.8985 C   0  0  0  0  0  0  0  0  0  0  0  0
  -10.2216  -32.0255  -35.1854 C   0  0  0  0  0  0  0  0  0  0  0  0
   -8.8686  -32.2919  -34.9715 C   0  0  0  0  0  0  0  0  0  0  0  0
  -12.9889  -26.2054  -36.5862 C   0  0  0  0  0  0  0  0  0  0  0  0
  -17.1374  -24.3720  -38.6947 C   0  0  0  0  0  0  0  0  0  0  0  0
  -11.2116  -27.4980  -34.8679 C   0  0  0  0  0  0  0  0  0  0  0  0
  -19.7930  -23.7060  -39.2306 C   0  0  0  0  0  0  0  0  0  0  0  0
  -19.4879  -24.5545  -38.1664 C   0  0  0  0  0  0  0  0  0  0  0  0
   -9.3226  -30.1339  -34.8094 C   0  0  0  0  0  0  0  0  0  0  0  0
   -6.9478  -30.7802  -34.4546 C   0  0  0  0  0  0  0  0  0  0  0  0
  -15.2858  -25.4473  -37.3404 C   0  0  0  0  0  0  0  0  0  0  0  0
   -4.1677  -33.1537  -34.5839 C   0  0  0  0  0  0  0  0  0  0  0  0
   -4.5058  -30.9807  -35.7978 C   0  0  0  0  0  0  0  0  0  0  0  0
   -4.3506  -31.0020  -33.2911 C   0  0  0  0  0  0  0  0  0  0  0  0
   -9.1604  -28.6745  -34.6149 C   0  0  0  0  0  0  0  0  0  0  0  0
   -4.8145  -31.7705  -34.5276 C   0  0  0  0  0  0  0  0  0  0  0  0
  -10.4815  -30.6857  -35.0805 N   0  0  0  0  0  0  0  0  0  0  0  0
   -8.2934  -31.0504  -34.7277 N   0  0  0  0  0  0  0  0  0  0  0  0
  -13.8778  -25.5590  -37.4456 N   0  0  0  0  0  0  0  0  0  0  0  0
  -15.7906  -24.7101  -38.4236 N   0  0  0  0  0  0  0  0  0  0  0  0
   -6.5557  -29.6422  -34.2555 O   0  0  0  0  0  0  0  0  0  0  0  0
  -15.9586  -25.9268  -36.4334 O   0  0  0  0  0  0  0  0  0  0  0  0
  -10.3396  -28.1321  -34.0250 O   0  0  0  0  0  0  0  0  0  0  0  0
   -6.2339  -31.9343  -34.4564 O   0  0  0  0  0  0  0  0  0  0  0  0
  -21.4173  -23.2536  -39.6117 Cl  0  0  0  0  0  0  0  0  0  0  0  0
  -20.7104  -25.2230  -37.1429 Cl  0  0  0  0  0  0  0  0  0  0  0  0
  -11.2767  -35.2109  -35.7355 H   0  0  0  0  0  0  0  0  0  0  0  0
   -8.8805  -35.6573  -35.3529 H   0  0  0  0  0  0  0  0  0  0  0  0
  -12.1621  -32.8947  -35.6336 H   0  0  0  0  0  0  0  0  0  0  0  0
   -7.3080  -33.8175  -34.8620 H   0  0  0  0  0  0  0  0  0  0  0  0
  -14.5282  -26.8495  -35.2121 H   0  0  0  0  0  0  0  0  0  0  0  0
  -11.2403  -25.7135  -37.7581 H   0  0  0  0  0  0  0  0  0  0  0  0
  -16.6534  -23.1175  -40.3866 H   0  0  0  0  0  0  0  0  0  0  0  0
  -12.9548  -27.9912  -33.6951 H   0  0  0  0  0  0  0  0  0  0  0  0
   -9.6718  -26.8567  -36.2376 H   0  0  0  0  0  0  0  0  0  0  0  0
  -18.9897  -22.5289  -40.8613 H   0  0  0  0  0  0  0  0  0  0  0  0
  -17.9158  -25.5480  -37.0688 H   0  0  0  0  0  0  0  0  0  0  0  0
   -4.3869  -33.7236  -33.6740 H   0  0  0  0  0  0  0  0  0  0  0  0
   -4.5187  -33.7283  -35.4472 H   0  0  0  0  0  0  0  0  0  0  0  0
   -3.0762  -33.0729  -34.6425 H   0  0  0  0  0  0  0  0  0  0  0  0
   -4.9679  -29.9876  -35.7617 H   0  0  0  0  0  0  0  0  0  0  0  0
   -4.9204  -31.4823  -36.6797 H   0  0  0  0  0  0  0  0  0  0  0  0
   -3.4279  -30.8565  -35.9443 H   0  0  0  0  0  0  0  0  0  0  0  0
   -4.8145  -30.0098  -33.2504 H   0  0  0  0  0  0  0  0  0  0  0  0
   -4.5971  -31.5367  -32.3680 H   0  0  0  0  0  0  0  0  0  0  0  0
   -3.2676  -30.8361  -33.3189 H   0  0  0  0  0  0  0  0  0  0  0  0
   -8.3077  -28.4398  -33.9567 H   0  0  0  0  0  0  0  0  0  0  0  0
   -8.9806  -28.1541  -35.5699 H   0  0  0  0  0  0  0  0  0  0  0  0
  -13.4556  -25.1042  -38.2621 H   0  0  0  0  0  0  0  0  0  0  0  0
  -15.1096  -24.3754  -39.1006 H   0  0  0  0  0  0  0  0  0  0  0  0
  1  2  2  0  0  0  0
  1  3  1  0  0  0  0
  2  4  1  0  0  0  0
  3 12  2  0  0  0  0
  4 13  2  0  0  0  0
  5  8  1  0  0  0  0
  5 14  2  0  0  0  0
  6  9  2  0  0  0  0
  6 14  1  0  0  0  0
  7 10  1  0  0  0  0
  7 15  2  0  0  0  0
  8 16  2  0  0  0  0
  9 16  1  0  0  0  0
 10 17  2  0  0  0  0
 11 15  1  0  0  0  0
 11 18  2  0  0  0  0
 12 13  1  0  0  0  0
 12 27  1  0  0  0  0
 13 28  1  0  0  0  0
 14 29  1  0  0  0  0
 15 30  1  0  0  0  0
 16 33  1  0  0  0  0
 17 18  1  0  0  0  0
 17 35  1  0  0  0  0
 18 36  1  0  0  0  0
 19 25  1  0  0  0  0
 19 27  2  0  0  0  0
 19 28  1  0  0  0  0
 20 28  1  0  0  0  0
 20 31  2  0  0  0  0
 20 34  1  0  0  0  0
 21 29  1  0  0  0  0
 21 30  1  0  0  0  0
 21 32  2  0  0  0  0
 22 26  1  0  0  0  0
 23 26  1  0  0  0  0
 24 26  1  0  0  0  0
 25 33  1  0  0  0  0
 26 34  1  0  0  0  0
  1 37  1  0  0  0  0
  2 38  1  0  0  0  0
  3 39  1  0  0  0  0
  4 40  1  0  0  0  0
  5 41  1  0  0  0  0
  6 42  1  0  0  0  0
  7 43  1  0  0  0  0
  8 44  1  0  0  0  0
  9 45  1  0  0  0  0
 10 46  1  0  0  0  0
 11 47  1  0  0  0  0
 22 48  1  0  0  0  0
 22 49  1  0  0  0  0
 22 50  1  0  0  0  0
 23 51  1  0  0  0  0
 23 52  1  0  0  0  0
 23 53  1  0  0  0  0
 24 54  1  0  0  0  0
 24 55  1  0  0  0  0
 24 56  1  0  0  0  0
 25 57  1  0  0  0  0
 25 58  1  0  0  0  0
 29 59  1  0  0  0  0
 30 60  1  0  0  0  0
M  END
> <Name>
EZ_18b

> <SourceTag>
EZ_18b

> <Activity_FLAP>
100

> <Activity_sEH>
0.63

> <Gold.Version>
5.2

> <Gold.Id.Protein>
6HGV|6HGV_protein|mol2

> <Gold.PLP.Fitness>
96.9729

> <Gold.PLP.PLP>
-92.0321

> <Gold.PLP.part.hbond>
-8.2153

> <Gold.PLP.part.metal>
0.0000

> <Gold.PLP.part.buried>
3.5241

> <Gold.PLP.part.nonpolar>
-86.0869

> <Gold.PLP.part.repulsive>
0.1113

> <Gold.PLP.ligand.clash>
0.0000

> <Gold.PLP.ligand.torsion>
1.2327

> <Gold.PLP.Chemscore.Hbond>
1.7244

> <Gold.PLP.Chemscore.CHOScore>
0.0000

> <Gold.PLP.Chemscore.Metal>
0.0000

> <Gold.Chemscore.Hbonds>
donor molecule, donor type, donor heavy atom, donor atom, acceptor molecule, acceptor atom, score
      L1  H    29    59       P1  1931  0.99
      P1  H  1256  3854       L1    27  0.65
      P1  H  1247  3847       L1    32  0.09

> <Gold.PLP.Chemscore.Internal.Correction>
0.4138

> <Gold.Protein.RotatedTorsions>
[ 3525  925  924  922 ] final   81.98 input   59.99 | X-H torsion
[ 3781 1176 1175 1172 ] final   93.65 input   60.00 | X-H torsion
[ 4531 1957 1955 1953 ] final  159.69 input   60.00 | X-H torsion
[ 3847 1247 1246 1244 ] final  -48.75 input   60.00 | X-H torsion
[ 4507 1931 1930 1928 ] final -156.59 input   60.00 | X-H torsion
[ 3677 1070 1069 1066 ] final  135.65 input   60.00 | X-H torsion

> <Gold.Protein.ActiveResidues>
 GLY266  PHE267  PRO268  GLU269  MET310  HIS334  ASP335  TRP336  GLY337  GLY338 
 MET339  LEU340  TRP342  TYR343  LEU358  ASN359  THR360  PRO361  ILE363  ALA365 
 MET369  SER370  PRO371  LEU372  GLU373  SER374  ILE375  LYS376  ALA377  ASN378 
 VAL380  PHE381  ASP382  TYR383  GLN384  PHE387  GLN388  LEU397  SER407  LEU408 
 PHE409  ARG410  LEU417  MET419  LEU428  PHE429  PHE459  TRP465  TYR466  ASN468 
 MET469  GLU470  ASN472  TRP473  ALA476  ASP496  PHE497  VAL498  LEU499  MET503 
 HIS524  TRP525 

> <Gold.Protein.RotatedAtoms>
   -2.4941  -30.0000  -30.7682 H   0  0  0  0  0  0  0  0  0  0  0  0  # atno 3525 bound_to 925 
  -11.3843  -22.2794  -30.7494 H   0  0  0  0  0  0  0  0  0  0  0  0  # atno 3677 bound_to 1070
  -10.2020  -37.2972  -32.4443 H   0  0  0  0  0  0  0  0  0  0  0  0  # atno 3781 bound_to 1176
  -16.0643  -28.0410  -37.1747 H   0  0  0  0  0  0  0  0  0  0  0  0  # atno 3847 bound_to 1247
  -13.1258  -24.0339  -40.3954 H   0  0  0  0  0  0  0  0  0  0  0  0  # atno 4507 bound_to 1931
   -1.7593  -33.9629  -36.9230 H   0  0  0  0  0  0  0  0  0  0  0  0  # atno 4531 bound_to 1957
   -3.7794  -29.5223  -29.8918 LP  0  0  0  0  0  0  0  0  0  0  0  0  # atno 5201 bound_to 925 
   -2.4725  -30.1601  -29.1490 LP  0  0  0  0  0  0  0  0  0  0  0  0  # atno 5202 bound_to 925 
  -10.6309  -37.0028  -33.9861 LP  0  0  0  0  0  0  0  0  0  0  0  0  # atno 5205 bound_to 1176
   -9.2766  -36.3301  -33.3697 LP  0  0  0  0  0  0  0  0  0  0  0  0  # atno 5206 bound_to 1176
   -3.1037  -33.0876  -36.6498 LP  0  0  0  0  0  0  0  0  0  0  0  0  # atno 5213 bound_to 1957
   -1.6763  -32.3377  -36.9082 LP  0  0  0  0  0  0  0  0  0  0  0  0  # atno 5214 bound_to 1957
  -14.8137  -27.3298  -37.9350 LP  0  0  0  0  0  0  0  0  0  0  0  0  # atno 5227 bound_to 1247
  -14.6802  -28.8666  -37.3994 LP  0  0  0  0  0  0  0  0  0  0  0  0  # atno 5228 bound_to 1247
  -12.4855  -24.3407  -38.9312 LP  0  0  0  0  0  0  0  0  0  0  0  0  # atno 5245 bound_to 1931
  -13.5831  -25.3634  -39.5762 LP  0  0  0  0  0  0  0  0  0  0  0  0  # atno 5246 bound_to 1931
  -12.8023  -23.0324  -30.4841 LP  0  0  0  0  0  0  0  0  0  0  0  0  # atno 5265 bound_to 1070
  -11.6713  -23.7268  -31.4356 LP  0  0  0  0  0  0  0  0  0  0  0  0  # atno 5266 bound_to 1070

$$$$
EZ_18b|Lisa_paper2_min|sdf|6|dock5
  -GOLD-  10202014323D 1   1.00000     0.00000

 60 63  0  0  0  0  0  0  0  0  1 V2000
  -10.9566  -34.0532  -35.3767 C   0  0  0  0  0  0  0  0  0  0  0  0
   -9.6182  -34.3979  -35.2001 C   0  0  0  0  0  0  0  0  0  0  0  0
  -11.3597  -32.7151  -35.3423 C   0  0  0  0  0  0  0  0  0  0  0  0
   -8.6404  -33.4205  -34.9842 C   0  0  0  0  0  0  0  0  0  0  0  0
  -11.7925  -26.3663  -36.9965 C   0  0  0  0  0  0  0  0  0  0  0  0
  -13.3906  -26.4989  -35.1894 C   0  0  0  0  0  0  0  0  0  0  0  0
  -17.8734  -23.8591  -39.4820 C   0  0  0  0  0  0  0  0  0  0  0  0
  -10.8134  -26.9194  -36.1712 C   0  0  0  0  0  0  0  0  0  0  0  0
  -12.4114  -27.0520  -34.3641 C   0  0  0  0  0  0  0  0  0  0  0  0
  -19.2272  -23.5692  -39.6509 C   0  0  0  0  0  0  0  0  0  0  0  0
  -18.3765  -25.0062  -37.4162 C   0  0  0  0  0  0  0  0  0  0  0  0
  -10.3900  -31.7200  -35.1261 C   0  0  0  0  0  0  0  0  0  0  0  0
   -9.0534  -32.0806  -34.9511 C   0  0  0  0  0  0  0  0  0  0  0  0
  -13.0811  -26.1561  -36.5055 C   0  0  0  0  0  0  0  0  0  0  0  0
  -17.4479  -24.5776  -38.3647 C   0  0  0  0  0  0  0  0  0  0  0  0
  -11.1228  -27.2622  -34.8550 C   0  0  0  0  0  0  0  0  0  0  0  0
  -20.1558  -23.9978  -38.7023 C   0  0  0  0  0  0  0  0  0  0  0  0
  -19.7304  -24.7163  -37.5849 C   0  0  0  0  0  0  0  0  0  0  0  0
   -9.3411  -29.8911  -34.8387 C   0  0  0  0  0  0  0  0  0  0  0  0
   -7.0089  -30.7027  -34.5469 C   0  0  0  0  0  0  0  0  0  0  0  0
  -15.4544  -25.5000  -37.1021 C   0  0  0  0  0  0  0  0  0  0  0  0
   -4.4055  -33.2704  -34.6022 C   0  0  0  0  0  0  0  0  0  0  0  0
   -4.4982  -31.0122  -35.6983 C   0  0  0  0  0  0  0  0  0  0  0  0
   -4.5255  -31.1885  -33.1930 C   0  0  0  0  0  0  0  0  0  0  0  0
   -9.0648  -28.4431  -34.6942 C   0  0  0  0  0  0  0  0  0  0  0  0
   -4.9534  -31.8475  -34.5035 C   0  0  0  0  0  0  0  0  0  0  0  0
  -10.5467  -30.3621  -35.0528 N   0  0  0  0  0  0  0  0  0  0  0  0
   -8.3798  -30.8792  -34.7650 N   0  0  0  0  0  0  0  0  0  0  0  0
  -14.0605  -25.6029  -37.3309 N   0  0  0  0  0  0  0  0  0  0  0  0
  -16.0746  -24.8721  -38.1942 N   0  0  0  0  0  0  0  0  0  0  0  0
   -6.5270  -29.5922  -34.3960 O   0  0  0  0  0  0  0  0  0  0  0  0
  -16.0286  -25.9027  -36.0954 O   0  0  0  0  0  0  0  0  0  0  0  0
  -10.1622  -27.8048  -34.0453 O   0  0  0  0  0  0  0  0  0  0  0  0
   -6.3824  -31.9065  -34.5385 O   0  0  0  0  0  0  0  0  0  0  0  0
  -21.8183  -23.6046  -38.9664 Cl  0  0  0  0  0  0  0  0  0  0  0  0
  -20.8323  -25.2724  -36.3743 Cl  0  0  0  0  0  0  0  0  0  0  0  0
  -11.6962  -34.8318  -35.5428 H   0  0  0  0  0  0  0  0  0  0  0  0
   -9.3270  -35.4450  -35.2301 H   0  0  0  0  0  0  0  0  0  0  0  0
  -12.4044  -32.4540  -35.4803 H   0  0  0  0  0  0  0  0  0  0  0  0
   -7.6063  -33.7148  -34.8496 H   0  0  0  0  0  0  0  0  0  0  0  0
  -11.5403  -26.1030  -38.0206 H   0  0  0  0  0  0  0  0  0  0  0  0
  -14.3914  -26.3395  -34.7960 H   0  0  0  0  0  0  0  0  0  0  0  0
  -17.1583  -23.5218  -40.2280 H   0  0  0  0  0  0  0  0  0  0  0  0
   -9.8114  -27.0808  -36.5594 H   0  0  0  0  0  0  0  0  0  0  0  0
  -12.6586  -27.3170  -33.3396 H   0  0  0  0  0  0  0  0  0  0  0  0
  -19.5410  -23.0095  -40.5285 H   0  0  0  0  0  0  0  0  0  0  0  0
  -18.0384  -25.5653  -36.5458 H   0  0  0  0  0  0  0  0  0  0  0  0
   -4.7299  -33.8731  -33.7465 H   0  0  0  0  0  0  0  0  0  0  0  0
   -4.7339  -33.7663  -35.5214 H   0  0  0  0  0  0  0  0  0  0  0  0
   -3.3095  -33.2697  -34.5820 H   0  0  0  0  0  0  0  0  0  0  0  0
   -4.8890  -29.9904  -35.6316 H   0  0  0  0  0  0  0  0  0  0  0  0
   -4.8834  -31.4295  -36.6357 H   0  0  0  0  0  0  0  0  0  0  0  0
   -3.4065  -30.9622  -35.7638 H   0  0  0  0  0  0  0  0  0  0  0  0
   -4.9185  -30.1678  -33.1220 H   0  0  0  0  0  0  0  0  0  0  0  0
   -4.8755  -31.7548  -32.3238 H   0  0  0  0  0  0  0  0  0  0  0  0
   -3.4342  -31.1042  -33.1373 H   0  0  0  0  0  0  0  0  0  0  0  0
   -8.1567  -28.2554  -34.0980 H   0  0  0  0  0  0  0  0  0  0  0  0
   -8.9119  -27.9582  -35.6722 H   0  0  0  0  0  0  0  0  0  0  0  0
  -13.7268  -25.2197  -38.2217 H   0  0  0  0  0  0  0  0  0  0  0  0
  -15.4676  -24.5924  -38.9606 H   0  0  0  0  0  0  0  0  0  0  0  0
  1  2  2  0  0  0  0
  1  3  1  0  0  0  0
  2  4  1  0  0  0  0
  3 12  2  0  0  0  0
  4 13  2  0  0  0  0
  5  8  1  0  0  0  0
  5 14  2  0  0  0  0
  6  9  2  0  0  0  0
  6 14  1  0  0  0  0
  7 10  1  0  0  0  0
  7 15  2  0  0  0  0
  8 16  2  0  0  0  0
  9 16  1  0  0  0  0
 10 17  2  0  0  0  0
 11 15  1  0  0  0  0
 11 18  2  0  0  0  0
 12 13  1  0  0  0  0
 12 27  1  0  0  0  0
 13 28  1  0  0  0  0
 14 29  1  0  0  0  0
 15 30  1  0  0  0  0
 16 33  1  0  0  0  0
 17 18  1  0  0  0  0
 17 35  1  0  0  0  0
 18 36  1  0  0  0  0
 19 25  1  0  0  0  0
 19 27  2  0  0  0  0
 19 28  1  0  0  0  0
 20 28  1  0  0  0  0
 20 31  2  0  0  0  0
 20 34  1  0  0  0  0
 21 29  1  0  0  0  0
 21 30  1  0  0  0  0
 21 32  2  0  0  0  0
 22 26  1  0  0  0  0
 23 26  1  0  0  0  0
 24 26  1  0  0  0  0
 25 33  1  0  0  0  0
 26 34  1  0  0  0  0
  1 37  1  0  0  0  0
  2 38  1  0  0  0  0
  3 39  1  0  0  0  0
  4 40  1  0  0  0  0
  5 41  1  0  0  0  0
  6 42  1  0  0  0  0
  7 43  1  0  0  0  0
  8 44  1  0  0  0  0
  9 45  1  0  0  0  0
 10 46  1  0  0  0  0
 11 47  1  0  0  0  0
 22 48  1  0  0  0  0
 22 49  1  0  0  0  0
 22 50  1  0  0  0  0
 23 51  1  0  0  0  0
 23 52  1  0  0  0  0
 23 53  1  0  0  0  0
 24 54  1  0  0  0  0
 24 55  1  0  0  0  0
 24 56  1  0  0  0  0
 25 57  1  0  0  0  0
 25 58  1  0  0  0  0
 29 59  1  0  0  0  0
 30 60  1  0  0  0  0
M  END
> <Name>
EZ_18b

> <SourceTag>
EZ_18b

> <Activity_FLAP>
100

> <Activity_sEH>
0.63

> <Gold.Version>
5.2

> <Gold.Id.Protein>
6HGV|6HGV_protein|mol2

> <Gold.PLP.Fitness>
96.6418

> <Gold.PLP.PLP>
-92.7305

> <Gold.PLP.part.hbond>
-8.0706

> <Gold.PLP.part.metal>
0.0000

> <Gold.PLP.part.buried>
0.0625

> <Gold.PLP.part.nonpolar>
-84.5927

> <Gold.PLP.part.repulsive>
0.1067

> <Gold.PLP.ligand.clash>
0.0116

> <Gold.PLP.ligand.torsion>
1.0020

> <Gold.PLP.Chemscore.Hbond>
1.3506

> <Gold.PLP.Chemscore.CHOScore>
0.0000

> <Gold.PLP.Chemscore.Metal>
0.0000

> <Gold.Chemscore.Hbonds>
donor molecule, donor type, donor heavy atom, donor atom, acceptor molecule, acceptor atom, score
      L1  H    29    59       P1  1931  0.99
      L1  H    30    60       P1  1931  0.01
      P1  H  1256  3854       L1    27  0.35

> <Gold.PLP.Chemscore.Internal.Correction>
0.4138

> <Gold.Protein.RotatedTorsions>
[ 3525  925  924  922 ] final -115.92 input   59.99 | X-H torsion
[ 3781 1176 1175 1172 ] final  -50.23 input   60.00 | X-H torsion
[ 4531 1957 1955 1953 ] final    3.50 input   60.00 | X-H torsion
[ 3847 1247 1246 1244 ] final  107.42 input   60.00 | X-H torsion
[ 4507 1931 1930 1928 ] final  175.71 input   60.00 | X-H torsion
[ 3677 1070 1069 1066 ] final -133.51 input   60.00 | X-H torsion

> <Gold.Protein.ActiveResidues>
 GLY266  PHE267  PRO268  GLU269  MET310  HIS334  ASP335  TRP336  GLY337  GLY338 
 MET339  LEU340  TRP342  TYR343  LEU358  ASN359  THR360  PRO361  ILE363  ALA365 
 MET369  SER370  PRO371  LEU372  GLU373  SER374  ILE375  LYS376  ALA377  ASN378 
 VAL380  PHE381  ASP382  TYR383  GLN384  PHE387  GLN388  LEU397  SER407  LEU408 
 PHE409  ARG410  LEU417  MET419  LEU428  PHE429  PHE459  TRP465  TYR466  ASN468 
 MET469  GLU470  ASN472  TRP473  ALA476  ASP496  PHE497  VAL498  LEU499  MET503 
 HIS524  TRP525 

> <Gold.Protein.RotatedAtoms>
   -3.0827  -29.9036  -29.0174 H   0  0  0  0  0  0  0  0  0  0  0  0  # atno 3525 bound_to 925 
  -11.3107  -23.4207  -31.4356 H   0  0  0  0  0  0  0  0  0  0  0  0  # atno 3677 bound_to 1070
  -10.3598  -36.7686  -34.1367 H   0  0  0  0  0  0  0  0  0  0  0  0  # atno 3781 bound_to 1176
  -14.3567  -28.4708  -37.6805 H   0  0  0  0  0  0  0  0  0  0  0  0  # atno 3847 bound_to 1247
  -12.8262  -23.8238  -40.1367 H   0  0  0  0  0  0  0  0  0  0  0  0  # atno 4507 bound_to 1931
   -2.8936  -32.5441  -36.6828 H   0  0  0  0  0  0  0  0  0  0  0  0  # atno 4531 bound_to 1957
   -2.0952  -30.2219  -30.2710 LP  0  0  0  0  0  0  0  0  0  0  0  0  # atno 5201 bound_to 925 
   -3.5639  -29.5577  -30.5330 LP  0  0  0  0  0  0  0  0  0  0  0  0  # atno 5202 bound_to 925 
   -9.2420  -36.4459  -32.9990 LP  0  0  0  0  0  0  0  0  0  0  0  0  # atno 5205 bound_to 1176
  -10.5066  -37.4194  -32.6525 LP  0  0  0  0  0  0  0  0  0  0  0  0  # atno 5206 bound_to 1176
   -1.3137  -32.7913  -36.9850 LP  0  0  0  0  0  0  0  0  0  0  0  0  # atno 5213 bound_to 1957
   -2.3241  -34.0628  -36.8149 LP  0  0  0  0  0  0  0  0  0  0  0  0  # atno 5214 bound_to 1957
  -15.8542  -28.5711  -37.0517 LP  0  0  0  0  0  0  0  0  0  0  0  0  # atno 5227 bound_to 1247
  -15.3593  -27.1924  -37.7734 LP  0  0  0  0  0  0  0  0  0  0  0  0  # atno 5228 bound_to 1247
  -12.6741  -24.7260  -38.7910 LP  0  0  0  0  0  0  0  0  0  0  0  0  # atno 5245 bound_to 1931
  -13.6962  -25.1897  -39.9771 LP  0  0  0  0  0  0  0  0  0  0  0  0  # atno 5246 bound_to 1931
  -11.7717  -22.1713  -30.5004 LP  0  0  0  0  0  0  0  0  0  0  0  0  # atno 5265 bound_to 1070
  -12.7761  -23.4386  -30.7283 LP  0  0  0  0  0  0  0  0  0  0  0  0  # atno 5266 bound_to 1070

$$$$
EZ_18b|Lisa_paper2_min|sdf|6|dock8
  -GOLD-  10202014343D 1   1.00000     0.00000

 60 63  0  0  0  0  0  0  0  0  1 V2000
  -10.9226  -33.9548  -35.3536 C   0  0  0  0  0  0  0  0  0  0  0  0
   -9.5872  -34.3074  -35.1701 C   0  0  0  0  0  0  0  0  0  0  0  0
  -11.3174  -32.6141  -35.3252 C   0  0  0  0  0  0  0  0  0  0  0  0
   -8.6042  -33.3354  -34.9530 C   0  0  0  0  0  0  0  0  0  0  0  0
  -13.1481  -25.9952  -35.1112 C   0  0  0  0  0  0  0  0  0  0  0  0
  -11.9493  -26.7832  -37.0551 C   0  0  0  0  0  0  0  0  0  0  0  0
  -17.8797  -23.9274  -39.4788 C   0  0  0  0  0  0  0  0  0  0  0  0
  -12.1579  -26.5268  -34.2850 C   0  0  0  0  0  0  0  0  0  0  0  0
  -10.9591  -27.3149  -36.2289 C   0  0  0  0  0  0  0  0  0  0  0  0
  -19.2371  -23.6504  -39.6411 C   0  0  0  0  0  0  0  0  0  0  0  0
  -18.3531  -25.0145  -37.3738 C   0  0  0  0  0  0  0  0  0  0  0  0
  -10.3423  -31.6244  -35.1079 C   0  0  0  0  0  0  0  0  0  0  0  0
   -9.0088  -31.9929  -34.9260 C   0  0  0  0  0  0  0  0  0  0  0  0
  -13.0437  -26.1234  -36.4962 C   0  0  0  0  0  0  0  0  0  0  0  0
  -17.4376  -24.6095  -38.3452 C   0  0  0  0  0  0  0  0  0  0  0  0
  -11.0634  -27.1867  -34.8438 C   0  0  0  0  0  0  0  0  0  0  0  0
  -20.1525  -24.0554  -38.6696 C   0  0  0  0  0  0  0  0  0  0  0  0
  -19.7105  -24.7375  -37.5360 C   0  0  0  0  0  0  0  0  0  0  0  0
   -9.2831  -29.8012  -34.8218 C   0  0  0  0  0  0  0  0  0  0  0  0
   -6.9573  -30.6267  -34.5172 C   0  0  0  0  0  0  0  0  0  0  0  0
  -15.4268  -25.4952  -37.0838 C   0  0  0  0  0  0  0  0  0  0  0  0
   -4.4081  -31.0845  -33.2843 C   0  0  0  0  0  0  0  0  0  0  0  0
   -4.4012  -33.2246  -34.5994 C   0  0  0  0  0  0  0  0  0  0  0  0
   -4.4870  -31.0197  -35.7991 C   0  0  0  0  0  0  0  0  0  0  0  0
   -8.9982  -28.3546  -34.6806 C   0  0  0  0  0  0  0  0  0  0  0  0
   -4.9094  -31.7854  -34.5461 C   0  0  0  0  0  0  0  0  0  0  0  0
  -10.4906  -30.2654  -35.0395 N   0  0  0  0  0  0  0  0  0  0  0  0
   -8.3284  -30.7952  -34.7407 N   0  0  0  0  0  0  0  0  0  0  0  0
  -14.0341  -25.5918  -37.3227 N   0  0  0  0  0  0  0  0  0  0  0  0
  -16.0607  -24.8908  -38.1813 N   0  0  0  0  0  0  0  0  0  0  0  0
   -6.4691  -29.5188  -34.3677 O   0  0  0  0  0  0  0  0  0  0  0  0
  -15.9894  -25.8846  -36.0655 O   0  0  0  0  0  0  0  0  0  0  0  0
  -10.0919  -27.7083  -34.0333 O   0  0  0  0  0  0  0  0  0  0  0  0
   -6.3385  -31.8344  -34.5023 O   0  0  0  0  0  0  0  0  0  0  0  0
  -21.8201  -23.6798  -38.9269 Cl  0  0  0  0  0  0  0  0  0  0  0  0
  -20.7956  -25.2630  -36.2969 Cl  0  0  0  0  0  0  0  0  0  0  0  0
  -11.6664  -34.7291  -35.5204 H   0  0  0  0  0  0  0  0  0  0  0  0
   -9.3025  -35.3564  -35.1954 H   0  0  0  0  0  0  0  0  0  0  0  0
  -12.3598  -32.3468  -35.4685 H   0  0  0  0  0  0  0  0  0  0  0  0
   -7.5725  -33.6359  -34.8130 H   0  0  0  0  0  0  0  0  0  0  0  0
  -13.9966  -25.4828  -34.6649 H   0  0  0  0  0  0  0  0  0  0  0  0
  -11.8575  -26.8893  -38.1331 H   0  0  0  0  0  0  0  0  0  0  0  0
  -17.1749  -23.6087  -40.2425 H   0  0  0  0  0  0  0  0  0  0  0  0
  -12.2447  -26.4236  -33.2068 H   0  0  0  0  0  0  0  0  0  0  0  0
  -10.1088  -27.8279  -36.6702 H   0  0  0  0  0  0  0  0  0  0  0  0
  -19.5638  -23.1192  -40.5316 H   0  0  0  0  0  0  0  0  0  0  0  0
  -18.0021  -25.5451  -36.4909 H   0  0  0  0  0  0  0  0  0  0  0  0
   -4.7706  -30.0513  -33.2423 H   0  0  0  0  0  0  0  0  0  0  0  0
   -4.7338  -31.6045  -32.3775 H   0  0  0  0  0  0  0  0  0  0  0  0
   -3.3134  -31.0285  -33.2768 H   0  0  0  0  0  0  0  0  0  0  0  0
   -4.7586  -33.7313  -35.5032 H   0  0  0  0  0  0  0  0  0  0  0  0
   -4.7806  -33.8042  -33.7501 H   0  0  0  0  0  0  0  0  0  0  0  0
   -3.3073  -33.2675  -34.5874 H   0  0  0  0  0  0  0  0  0  0  0  0
   -4.8465  -31.5222  -36.7044 H   0  0  0  0  0  0  0  0  0  0  0  0
   -4.8741  -29.9955  -35.7955 H   0  0  0  0  0  0  0  0  0  0  0  0
   -3.3948  -30.9789  -35.8812 H   0  0  0  0  0  0  0  0  0  0  0  0
   -8.0891  -28.1709  -34.0848 H   0  0  0  0  0  0  0  0  0  0  0  0
   -8.8423  -27.8730  -35.6598 H   0  0  0  0  0  0  0  0  0  0  0  0
  -13.7107  -25.2217  -38.2228 H   0  0  0  0  0  0  0  0  0  0  0  0
  -15.4623  -24.6200  -38.9576 H   0  0  0  0  0  0  0  0  0  0  0  0
  1  2  2  0  0  0  0
  1  3  1  0  0  0  0
  2  4  1  0  0  0  0
  3 12  2  0  0  0  0
  4 13  2  0  0  0  0
  5  8  1  0  0  0  0
  5 14  2  0  0  0  0
  6  9  2  0  0  0  0
  6 14  1  0  0  0  0
  7 10  1  0  0  0  0
  7 15  2  0  0  0  0
  8 16  2  0  0  0  0
  9 16  1  0  0  0  0
 10 17  2  0  0  0  0
 11 15  1  0  0  0  0
 11 18  2  0  0  0  0
 12 13  1  0  0  0  0
 12 27  1  0  0  0  0
 13 28  1  0  0  0  0
 14 29  1  0  0  0  0
 15 30  1  0  0  0  0
 16 33  1  0  0  0  0
 17 18  1  0  0  0  0
 17 35  1  0  0  0  0
 18 36  1  0  0  0  0
 19 25  1  0  0  0  0
 19 27  2  0  0  0  0
 19 28  1  0  0  0  0
 20 28  1  0  0  0  0
 20 31  2  0  0  0  0
 20 34  1  0  0  0  0
 21 29  1  0  0  0  0
 21 30  1  0  0  0  0
 21 32  2  0  0  0  0
 22 26  1  0  0  0  0
 23 26  1  0  0  0  0
 24 26  1  0  0  0  0
 25 33  1  0  0  0  0
 26 34  1  0  0  0  0
  1 37  1  0  0  0  0
  2 38  1  0  0  0  0
  3 39  1  0  0  0  0
  4 40  1  0  0  0  0
  5 41  1  0  0  0  0
  6 42  1  0  0  0  0
  7 43  1  0  0  0  0
  8 44  1  0  0  0  0
  9 45  1  0  0  0  0
 10 46  1  0  0  0  0
 11 47  1  0  0  0  0
 22 48  1  0  0  0  0
 22 49  1  0  0  0  0
 22 50  1  0  0  0  0
 23 51  1  0  0  0  0
 23 52  1  0  0  0  0
 23 53  1  0  0  0  0
 24 54  1  0  0  0  0
 24 55  1  0  0  0  0
 24 56  1  0  0  0  0
 25 57  1  0  0  0  0
 25 58  1  0  0  0  0
 29 59  1  0  0  0  0
 30 60  1  0  0  0  0
M  END
> <Name>
EZ_18b

> <SourceTag>
EZ_18b

> <Activity_FLAP>
100

> <Activity_sEH>
0.63

> <Gold.Version>
5.2

> <Gold.Id.Protein>
6HGV|6HGV_protein|mol2

> <Gold.PLP.Fitness>
96.2779

> <Gold.PLP.PLP>
-94.1823

> <Gold.PLP.part.hbond>
-7.9416

> <Gold.PLP.part.metal>
0.0000

> <Gold.PLP.part.buried>
1.4836

> <Gold.PLP.part.nonpolar>
-87.4719

> <Gold.PLP.part.repulsive>
0.1075

> <Gold.PLP.ligand.clash>
1.5806

> <Gold.PLP.ligand.torsion>
0.9345

> <Gold.PLP.Chemscore.Hbond>
1.2613

> <Gold.PLP.Chemscore.CHOScore>
0.0000

> <Gold.PLP.Chemscore.Metal>
0.0000

> <Gold.Chemscore.Hbonds>
donor molecule, donor type, donor heavy atom, donor atom, acceptor molecule, acceptor atom, score
      L1  H    29    59       P1  1931  0.99
      L1  H    30    60       P1  1931  0.02
      P1  H  1256  3854       L1    27  0.26

> <Gold.PLP.Chemscore.Internal.Correction>
0.3982

> <Gold.Protein.RotatedTorsions>
[ 3525  925  924  922 ] final  -35.35 input   59.99 | X-H torsion
[ 3781 1176 1175 1172 ] final   51.70 input   60.00 | X-H torsion
[ 4531 1957 1955 1953 ] final   64.21 input   60.00 | X-H torsion
[ 3847 1247 1246 1244 ] final   66.92 input   60.00 | X-H torsion
[ 4507 1931 1930 1928 ] final  174.92 input   60.00 | X-H torsion
[ 3677 1070 1069 1066 ] final  -71.80 input   60.00 | X-H torsion

> <Gold.Protein.ActiveResidues>
 GLY266  PHE267  PRO268  GLU269  MET310  HIS334  ASP335  TRP336  GLY337  GLY338 
 MET339  LEU340  TRP342  TYR343  LEU358  ASN359  THR360  PRO361  ILE363  ALA365 
 MET369  SER370  PRO371  LEU372  GLU373  SER374  ILE375  LYS376  ALA377  ASN378 
 VAL380  PHE381  ASP382  TYR383  GLN384  PHE387  GLN388  LEU397  SER407  LEU408 
 PHE409  ARG410  LEU417  MET419  LEU428  PHE429  PHE459  TRP465  TYR466  ASN468 
 MET469  GLU470  ASN472  TRP473  ALA476  ASP496  PHE497  VAL498  LEU499  MET503 
 HIS524  TRP525 

> <Gold.Protein.RotatedAtoms>
   -3.7720  -29.5191  -29.9354 H   0  0  0  0  0  0  0  0  0  0  0  0  # atno 3525 bound_to 925 
  -12.1544  -23.8454  -31.2626 H   0  0  0  0  0  0  0  0  0  0  0  0  # atno 3677 bound_to 1070
  -10.6785  -37.4478  -32.8908 H   0  0  0  0  0  0  0  0  0  0  0  0  # atno 3781 bound_to 1176
  -14.7403  -28.8904  -37.3695 H   0  0  0  0  0  0  0  0  0  0  0  0  # atno 3847 bound_to 1247
  -12.8181  -23.8202  -40.1273 H   0  0  0  0  0  0  0  0  0  0  0  0  # atno 4507 bound_to 1931
   -3.0339  -33.4799  -36.6723 H   0  0  0  0  0  0  0  0  0  0  0  0  # atno 4531 bound_to 1957
   -2.5075  -30.1469  -29.1261 LP  0  0  0  0  0  0  0  0  0  0  0  0  # atno 5201 bound_to 925 
   -2.4574  -30.0198  -30.7534 LP  0  0  0  0  0  0  0  0  0  0  0  0  # atno 5202 bound_to 925 
  -10.1208  -36.5970  -34.1609 LP  0  0  0  0  0  0  0  0  0  0  0  0  # atno 5205 bound_to 1176
   -9.3069  -36.5843  -32.7452 LP  0  0  0  0  0  0  0  0  0  0  0  0  # atno 5206 bound_to 1176
   -2.0446  -32.1982  -36.8358 LP  0  0  0  0  0  0  0  0  0  0  0  0  # atno 5213 bound_to 1957
   -1.4520  -33.7135  -36.9747 LP  0  0  0  0  0  0  0  0  0  0  0  0  # atno 5214 bound_to 1957
  -16.0730  -27.9731  -37.1946 LP  0  0  0  0  0  0  0  0  0  0  0  0  # atno 5227 bound_to 1247
  -14.7543  -27.3679  -37.9437 LP  0  0  0  0  0  0  0  0  0  0  0  0  # atno 5228 bound_to 1247
  -12.6810  -24.7369  -38.7898 LP  0  0  0  0  0  0  0  0  0  0  0  0  # atno 5245 bound_to 1931
  -13.6974  -25.1824  -39.9877 LP  0  0  0  0  0  0  0  0  0  0  0  0  # atno 5246 bound_to 1931
  -11.1196  -22.6047  -31.0678 LP  0  0  0  0  0  0  0  0  0  0  0  0  # atno 5265 bound_to 1070
  -12.5786  -22.5775  -30.3350 LP  0  0  0  0  0  0  0  0  0  0  0  0  # atno 5266 bound_to 1070

$$$$
EZ_18b|Lisa_paper2_min|sdf|6|dock3
  -GOLD-  10202014323D 1   1.00000     0.00000

 60 63  0  0  0  0  0  0  0  0  1 V2000
  -10.4883  -34.3321  -35.5035 C   0  0  0  0  0  0  0  0  0  0  0  0
   -9.1303  -34.5640  -35.2953 C   0  0  0  0  0  0  0  0  0  0  0  0
  -11.0175  -33.0429  -35.3936 C   0  0  0  0  0  0  0  0  0  0  0  0
   -8.2578  -33.5190  -34.9716 C   0  0  0  0  0  0  0  0  0  0  0  0
  -13.4653  -26.8893  -35.3628 C   0  0  0  0  0  0  0  0  0  0  0  0
  -11.5748  -26.2152  -36.7076 C   0  0  0  0  0  0  0  0  0  0  0  0
  -17.2991  -23.5479  -39.7923 C   0  0  0  0  0  0  0  0  0  0  0  0
  -12.6031  -27.5244  -34.4690 C   0  0  0  0  0  0  0  0  0  0  0  0
  -10.7125  -26.8503  -35.8137 C   0  0  0  0  0  0  0  0  0  0  0  0
  -18.6161  -23.2020  -40.0946 C   0  0  0  0  0  0  0  0  0  0  0  0
  -18.0778  -24.9028  -37.9498 C   0  0  0  0  0  0  0  0  0  0  0  0
  -10.1548  -31.9811  -35.0686 C   0  0  0  0  0  0  0  0  0  0  0  0
   -8.7970  -32.2289  -34.8633 C   0  0  0  0  0  0  0  0  0  0  0  0
  -12.9510  -26.2348  -36.4821 C   0  0  0  0  0  0  0  0  0  0  0  0
  -17.0299  -24.3983  -38.7199 C   0  0  0  0  0  0  0  0  0  0  0  0
  -11.2267  -27.5049  -34.6944 C   0  0  0  0  0  0  0  0  0  0  0  0
  -19.6640  -23.7065  -39.3245 C   0  0  0  0  0  0  0  0  0  0  0  0
  -19.3949  -24.5569  -38.2521 C   0  0  0  0  0  0  0  0  0  0  0  0
   -9.2948  -30.0891  -34.6119 C   0  0  0  0  0  0  0  0  0  0  0  0
   -6.9078  -30.7016  -34.2795 C   0  0  0  0  0  0  0  0  0  0  0  0
  -15.2210  -25.4629  -37.3008 C   0  0  0  0  0  0  0  0  0  0  0  0
   -4.2245  -30.8797  -33.2972 C   0  0  0  0  0  0  0  0  0  0  0  0
   -4.1176  -33.0263  -34.5973 C   0  0  0  0  0  0  0  0  0  0  0  0
   -4.5392  -30.8589  -35.7942 C   0  0  0  0  0  0  0  0  0  0  0  0
   -9.1624  -28.6363  -34.3561 C   0  0  0  0  0  0  0  0  0  0  0  0
   -4.7642  -31.6459  -34.5040 C   0  0  0  0  0  0  0  0  0  0  0  0
  -10.4420  -30.6524  -34.9083 N   0  0  0  0  0  0  0  0  0  0  0  0
   -8.2474  -30.9873  -34.5665 N   0  0  0  0  0  0  0  0  0  0  0  0
  -13.8134  -25.5996  -37.3763 N   0  0  0  0  0  0  0  0  0  0  0  0
  -15.6939  -24.7495  -38.4139 N   0  0  0  0  0  0  0  0  0  0  0  0
   -6.5391  -29.5653  -34.0321 O   0  0  0  0  0  0  0  0  0  0  0  0
  -15.9181  -25.9054  -36.3933 O   0  0  0  0  0  0  0  0  0  0  0  0
  -10.3807  -28.1280  -33.8175 O   0  0  0  0  0  0  0  0  0  0  0  0
   -6.1707  -31.8399  -34.3282 O   0  0  0  0  0  0  0  0  0  0  0  0
  -21.2734  -23.2384  -39.7476 Cl  0  0  0  0  0  0  0  0  0  0  0  0
  -20.6499  -25.2122  -37.2600 Cl  0  0  0  0  0  0  0  0  0  0  0  0
  -11.1444  -35.1614  -35.7538 H   0  0  0  0  0  0  0  0  0  0  0  0
   -8.7402  -35.5749  -35.3853 H   0  0  0  0  0  0  0  0  0  0  0  0
  -12.0768  -32.8698  -35.5568 H   0  0  0  0  0  0  0  0  0  0  0  0
   -7.2058  -33.7259  -34.8145 H   0  0  0  0  0  0  0  0  0  0  0  0
  -14.5362  -26.9108  -35.1772 H   0  0  0  0  0  0  0  0  0  0  0  0
  -11.1627  -25.7083  -37.5765 H   0  0  0  0  0  0  0  0  0  0  0  0
  -16.4900  -23.1504  -40.3997 H   0  0  0  0  0  0  0  0  0  0  0  0
  -13.0096  -28.0326  -33.5988 H   0  0  0  0  0  0  0  0  0  0  0  0
   -9.6412  -26.8317  -35.9948 H   0  0  0  0  0  0  0  0  0  0  0  0
  -18.8073  -22.5392  -40.9349 H   0  0  0  0  0  0  0  0  0  0  0  0
  -17.8615  -25.5648  -37.1136 H   0  0  0  0  0  0  0  0  0  0  0  0
   -4.6861  -29.8884  -33.2268 H   0  0  0  0  0  0  0  0  0  0  0  0
   -4.4108  -31.4174  -32.3618 H   0  0  0  0  0  0  0  0  0  0  0  0
   -3.1453  -30.7122  -33.3911 H   0  0  0  0  0  0  0  0  0  0  0  0
   -4.5019  -33.5796  -35.4618 H   0  0  0  0  0  0  0  0  0  0  0  0
   -4.3561  -33.6295  -33.7139 H   0  0  0  0  0  0  0  0  0  0  0  0
   -3.0286  -32.9572  -34.6862 H   0  0  0  0  0  0  0  0  0  0  0  0
   -4.9263  -31.4083  -36.6601 H   0  0  0  0  0  0  0  0  0  0  0  0
   -5.0276  -29.8797  -35.7597 H   0  0  0  0  0  0  0  0  0  0  0  0
   -3.4691  -30.7080  -35.9771 H   0  0  0  0  0  0  0  0  0  0  0  0
   -8.3526  -28.4169  -33.6410 H   0  0  0  0  0  0  0  0  0  0  0  0
   -8.9338  -28.0795  -35.2796 H   0  0  0  0  0  0  0  0  0  0  0  0
  -13.3689  -25.1753  -38.1973 H   0  0  0  0  0  0  0  0  0  0  0  0
  -14.9952  -24.4453  -39.0873 H   0  0  0  0  0  0  0  0  0  0  0  0
  1  2  2  0  0  0  0
  1  3  1  0  0  0  0
  2  4  1  0  0  0  0
  3 12  2  0  0  0  0
  4 13  2  0  0  0  0
  5  8  1  0  0  0  0
  5 14  2  0  0  0  0
  6  9  2  0  0  0  0
  6 14  1  0  0  0  0
  7 10  1  0  0  0  0
  7 15  2  0  0  0  0
  8 16  2  0  0  0  0
  9 16  1  0  0  0  0
 10 17  2  0  0  0  0
 11 15  1  0  0  0  0
 11 18  2  0  0  0  0
 12 13  1  0  0  0  0
 12 27  1  0  0  0  0
 13 28  1  0  0  0  0
 14 29  1  0  0  0  0
 15 30  1  0  0  0  0
 16 33  1  0  0  0  0
 17 18  1  0  0  0  0
 17 35  1  0  0  0  0
 18 36  1  0  0  0  0
 19 25  1  0  0  0  0
 19 27  2  0  0  0  0
 19 28  1  0  0  0  0
 20 28  1  0  0  0  0
 20 31  2  0  0  0  0
 20 34  1  0  0  0  0
 21 29  1  0  0  0  0
 21 30  1  0  0  0  0
 21 32  2  0  0  0  0
 22 26  1  0  0  0  0
 23 26  1  0  0  0  0
 24 26  1  0  0  0  0
 25 33  1  0  0  0  0
 26 34  1  0  0  0  0
  1 37  1  0  0  0  0
  2 38  1  0  0  0  0
  3 39  1  0  0  0  0
  4 40  1  0  0  0  0
  5 41  1  0  0  0  0
  6 42  1  0  0  0  0
  7 43  1  0  0  0  0
  8 44  1  0  0  0  0
  9 45  1  0  0  0  0
 10 46  1  0  0  0  0
 11 47  1  0  0  0  0
 22 48  1  0  0  0  0
 22 49  1  0  0  0  0
 22 50  1  0  0  0  0
 23 51  1  0  0  0  0
 23 52  1  0  0  0  0
 23 53  1  0  0  0  0
 24 54  1  0  0  0  0
 24 55  1  0  0  0  0
 24 56  1  0  0  0  0
 25 57  1  0  0  0  0
 25 58  1  0  0  0  0
 29 59  1  0  0  0  0
 30 60  1  0  0  0  0
M  END
> <Name>
EZ_18b

> <SourceTag>
EZ_18b

> <Activity_FLAP>
100

> <Activity_sEH>
0.63

> <Gold.Version>
5.2

> <Gold.Id.Protein>
6HGV|6HGV_protein|mol2

> <Gold.PLP.Fitness>
95.7824

> <Gold.PLP.PLP>
-91.9178

> <Gold.PLP.part.hbond>
-7.9362

> <Gold.PLP.part.metal>
0.0000

> <Gold.PLP.part.buried>
2.7701

> <Gold.PLP.part.nonpolar>
-86.3008

> <Gold.PLP.part.repulsive>
0.1109

> <Gold.PLP.ligand.clash>
0.0000

> <Gold.PLP.ligand.torsion>
1.3264

> <Gold.PLP.Chemscore.Hbond>
1.4114

> <Gold.PLP.Chemscore.CHOScore>
0.0000

> <Gold.PLP.Chemscore.Metal>
0.0000

> <Gold.Chemscore.Hbonds>
donor molecule, donor type, donor heavy atom, donor atom, acceptor molecule, acceptor atom, score
      L1  H    29    59       P1  1931  0.97
      L1  H    30    60       P1  1931  0.02
      P1  H  1256  3854       L1    27  0.43

> <Gold.PLP.Chemscore.Internal.Correction>
0.4770

> <Gold.Protein.RotatedTorsions>
[ 3525  925  924  922 ] final  158.53 input   59.99 | X-H torsion
[ 3781 1176 1175 1172 ] final -160.29 input   60.00 | X-H torsion
[ 4531 1957 1955 1953 ] final   60.00 input   60.00 | X-H torsion
[ 3847 1247 1246 1244 ] final -111.65 input   60.00 | X-H torsion
[ 4507 1931 1930 1928 ] final  172.34 input   60.00 | X-H torsion
[ 3677 1070 1069 1066 ] final   43.70 input   60.00 | X-H torsion

> <Gold.Protein.ActiveResidues>
 GLY266  PHE267  PRO268  GLU269  MET310  HIS334  ASP335  TRP336  GLY337  GLY338 
 MET339  LEU340  TRP342  TYR343  LEU358  ASN359  THR360  PRO361  ILE363  ALA365 
 MET369  SER370  PRO371  LEU372  GLU373  SER374  ILE375  LYS376  ALA377  ASN378 
 VAL380  PHE381  ASP382  TYR383  GLN384  PHE387  GLN388  LEU397  SER407  LEU408 
 PHE409  ARG410  LEU417  MET419  LEU428  PHE429  PHE459  TRP465  TYR466  ASN468 
 MET469  GLU470  ASN472  TRP473  ALA476  ASP496  PHE497  VAL498  LEU499  MET503 
 HIS524  TRP525 

> <Gold.Protein.RotatedAtoms>
   -2.0874  -30.2735  -29.7171 H   0  0  0  0  0  0  0  0  0  0  0  0  # atno 3525 bound_to 925 
  -12.6181  -22.6389  -30.3476 H   0  0  0  0  0  0  0  0  0  0  0  0  # atno 3677 bound_to 1070
   -9.2440  -36.3927  -33.1528 H   0  0  0  0  0  0  0  0  0  0  0  0  # atno 3781 bound_to 1176
  -15.6557  -27.2777  -37.6271 H   0  0  0  0  0  0  0  0  0  0  0  0  # atno 3847 bound_to 1247
  -12.7921  -23.8095  -40.0958 H   0  0  0  0  0  0  0  0  0  0  0  0  # atno 4507 bound_to 1931
   -3.0565  -33.4152  -36.6669 H   0  0  0  0  0  0  0  0  0  0  0  0  # atno 4531 bound_to 1957
   -3.1269  -29.7201  -30.8401 LP  0  0  0  0  0  0  0  0  0  0  0  0  # atno 5201 bound_to 925 
   -3.5346  -29.6869  -29.2592 LP  0  0  0  0  0  0  0  0  0  0  0  0  # atno 5202 bound_to 925 
  -10.3879  -37.3794  -32.5478 LP  0  0  0  0  0  0  0  0  0  0  0  0  # atno 5205 bound_to 1176
  -10.4844  -36.8645  -34.0945 LP  0  0  0  0  0  0  0  0  0  0  0  0  # atno 5206 bound_to 1176
   -1.9777  -32.2105  -36.8487 LP  0  0  0  0  0  0  0  0  0  0  0  0  # atno 5213 bound_to 1957
   -1.4961  -33.7663  -36.9672 LP  0  0  0  0  0  0  0  0  0  0  0  0  # atno 5214 bound_to 1957
  -14.3033  -28.1624  -37.8168 LP  0  0  0  0  0  0  0  0  0  0  0  0  # atno 5227 bound_to 1247
  -15.6021  -28.8027  -37.0621 LP  0  0  0  0  0  0  0  0  0  0  0  0  # atno 5228 bound_to 1247
  -12.7043  -24.7724  -38.7869 LP  0  0  0  0  0  0  0  0  0  0  0  0  # atno 5245 bound_to 1931
  -13.7003  -25.1577  -40.0223 LP  0  0  0  0  0  0  0  0  0  0  0  0  # atno 5246 bound_to 1931
  -12.0900  -23.8488  -31.2992 LP  0  0  0  0  0  0  0  0  0  0  0  0  # atno 5265 bound_to 1070
  -11.1413  -22.5483  -31.0250 LP  0  0  0  0  0  0  0  0  0  0  0  0  # atno 5266 bound_to 1070

$$$$
EZ_18b|Lisa_paper2_min|sdf|6|dock1
  -GOLD-  10202014313D 1   1.00000     0.00000

 60 63  0  0  0  0  0  0  0  0  1 V2000
   -3.1212  -29.7470  -33.3412 C   0  0  0  0  0  0  0  0  0  0  0  0
   -3.3897  -31.1142  -33.3300 C   0  0  0  0  0  0  0  0  0  0  0  0
   -4.1234  -28.8252  -33.6578 C   0  0  0  0  0  0  0  0  0  0  0  0
   -4.6645  -31.6050  -33.6334 C   0  0  0  0  0  0  0  0  0  0  0  0
  -11.9920  -26.9950  -36.4838 C   0  0  0  0  0  0  0  0  0  0  0  0
  -11.0932  -25.0035  -35.4528 C   0  0  0  0  0  0  0  0  0  0  0  0
  -16.5008  -23.2013  -39.5849 C   0  0  0  0  0  0  0  0  0  0  0  0
  -11.0585  -27.7717  -35.7974 C   0  0  0  0  0  0  0  0  0  0  0  0
  -10.1597  -25.7802  -34.7664 C   0  0  0  0  0  0  0  0  0  0  0  0
  -17.8158  -23.0877  -40.0357 C   0  0  0  0  0  0  0  0  0  0  0  0
  -17.2504  -24.5734  -37.7432 C   0  0  0  0  0  0  0  0  0  0  0  0
   -5.4102  -29.3014  -33.9655 C   0  0  0  0  0  0  0  0  0  0  0  0
   -5.6640  -30.6735  -33.9499 C   0  0  0  0  0  0  0  0  0  0  0  0
  -12.0092  -25.6109  -36.3114 C   0  0  0  0  0  0  0  0  0  0  0  0
  -16.2180  -23.9441  -38.4386 C   0  0  0  0  0  0  0  0  0  0  0  0
  -10.1424  -27.1643  -34.9387 C   0  0  0  0  0  0  0  0  0  0  0  0
  -18.8483  -23.7170  -39.3401 C   0  0  0  0  0  0  0  0  0  0  0  0
  -18.5656  -24.4599  -38.1939 C   0  0  0  0  0  0  0  0  0  0  0  0
   -7.4624  -29.5055  -34.4894 C   0  0  0  0  0  0  0  0  0  0  0  0
   -7.7453  -31.9749  -34.4154 C   0  0  0  0  0  0  0  0  0  0  0  0
  -14.3072  -25.1135  -37.2552 C   0  0  0  0  0  0  0  0  0  0  0  0
   -8.7903  -34.4117  -33.4086 C   0  0  0  0  0  0  0  0  0  0  0  0
   -8.0082  -34.4113  -35.7956 C   0  0  0  0  0  0  0  0  0  0  0  0
   -6.5586  -35.4111  -34.0047 C   0  0  0  0  0  0  0  0  0  0  0  0
   -8.8507  -29.1601  -34.8729 C   0  0  0  0  0  0  0  0  0  0  0  0
   -7.5772  -34.3206  -34.3333 C   0  0  0  0  0  0  0  0  0  0  0  0
   -6.5348  -28.5971  -34.3017 N   0  0  0  0  0  0  0  0  0  0  0  0
   -7.0055  -30.7934  -34.2928 N   0  0  0  0  0  0  0  0  0  0  0  0
  -12.9428  -24.8340  -36.9980 N   0  0  0  0  0  0  0  0  0  0  0  0
  -14.8838  -24.0595  -37.9821 N   0  0  0  0  0  0  0  0  0  0  0  0
   -8.9253  -31.9569  -34.7244 O   0  0  0  0  0  0  0  0  0  0  0  0
  -14.8924  -26.1292  -36.8931 O   0  0  0  0  0  0  0  0  0  0  0  0
   -9.2265  -27.9263  -34.2652 O   0  0  0  0  0  0  0  0  0  0  0  0
   -6.9563  -33.0455  -34.1453 O   0  0  0  0  0  0  0  0  0  0  0  0
  -20.4567  -23.5362  -39.9472 Cl  0  0  0  0  0  0  0  0  0  0  0  0
  -19.8015  -25.2605  -37.2882 Cl  0  0  0  0  0  0  0  0  0  0  0  0
   -2.1226  -29.3920  -33.1018 H   0  0  0  0  0  0  0  0  0  0  0  0
   -2.5951  -31.8134  -33.0815 H   0  0  0  0  0  0  0  0  0  0  0  0
   -3.9068  -27.7615  -33.6650 H   0  0  0  0  0  0  0  0  0  0  0  0
   -4.8474  -32.6729  -33.6178 H   0  0  0  0  0  0  0  0  0  0  0  0
  -12.7013  -27.4789  -37.1504 H   0  0  0  0  0  0  0  0  0  0  0  0
  -11.0972  -23.9258  -35.3107 H   0  0  0  0  0  0  0  0  0  0  0  0
  -15.7035  -22.7082  -40.1352 H   0  0  0  0  0  0  0  0  0  0  0  0
  -11.0501  -28.8494  -35.9357 H   0  0  0  0  0  0  0  0  0  0  0  0
   -9.4485  -25.3012  -34.0988 H   0  0  0  0  0  0  0  0  0  0  0  0
  -18.0175  -22.5060  -40.9317 H   0  0  0  0  0  0  0  0  0  0  0  0
  -17.0238  -25.1505  -36.8488 H   0  0  0  0  0  0  0  0  0  0  0  0
   -8.4851  -34.3470  -32.3581 H   0  0  0  0  0  0  0  0  0  0  0  0
   -9.5124  -33.6139  -33.6107 H   0  0  0  0  0  0  0  0  0  0  0  0
   -9.2984  -35.3760  -33.5240 H   0  0  0  0  0  0  0  0  0  0  0  0
   -7.1410  -34.3464  -36.4626 H   0  0  0  0  0  0  0  0  0  0  0  0
   -8.6653  -33.5754  -36.0614 H   0  0  0  0  0  0  0  0  0  0  0  0
   -8.5365  -35.3474  -36.0038 H   0  0  0  0  0  0  0  0  0  0  0  0
   -5.6883  -35.3459  -34.6679 H   0  0  0  0  0  0  0  0  0  0  0  0
   -6.2102  -35.3387  -32.9693 H   0  0  0  0  0  0  0  0  0  0  0  0
   -6.9904  -36.4067  -34.1581 H   0  0  0  0  0  0  0  0  0  0  0  0
   -8.9612  -29.0531  -35.9646 H   0  0  0  0  0  0  0  0  0  0  0  0
   -9.5663  -29.9352  -34.5529 H   0  0  0  0  0  0  0  0  0  0  0  0
  -12.5948  -23.9419  -37.3653 H   0  0  0  0  0  0  0  0  0  0  0  0
  -14.2724  -23.2803  -38.2125 H   0  0  0  0  0  0  0  0  0  0  0  0
  1  2  2  0  0  0  0
  1  3  1  0  0  0  0
  2  4  1  0  0  0  0
  3 12  2  0  0  0  0
  4 13  2  0  0  0  0
  5  8  1  0  0  0  0
  5 14  2  0  0  0  0
  6  9  2  0  0  0  0
  6 14  1  0  0  0  0
  7 10  1  0  0  0  0
  7 15  2  0  0  0  0
  8 16  2  0  0  0  0
  9 16  1  0  0  0  0
 10 17  2  0  0  0  0
 11 15  1  0  0  0  0
 11 18  2  0  0  0  0
 12 13  1  0  0  0  0
 12 27  1  0  0  0  0
 13 28  1  0  0  0  0
 14 29  1  0  0  0  0
 15 30  1  0  0  0  0
 16 33  1  0  0  0  0
 17 18  1  0  0  0  0
 17 35  1  0  0  0  0
 18 36  1  0  0  0  0
 19 25  1  0  0  0  0
 19 27  2  0  0  0  0
 19 28  1  0  0  0  0
 20 28  1  0  0  0  0
 20 31  2  0  0  0  0
 20 34  1  0  0  0  0
 21 29  1  0  0  0  0
 21 30  1  0  0  0  0
 21 32  2  0  0  0  0
 22 26  1  0  0  0  0
 23 26  1  0  0  0  0
 24 26  1  0  0  0  0
 25 33  1  0  0  0  0
 26 34  1  0  0  0  0
  1 37  1  0  0  0  0
  2 38  1  0  0  0  0
  3 39  1  0  0  0  0
  4 40  1  0  0  0  0
  5 41  1  0  0  0  0
  6 42  1  0  0  0  0
  7 43  1  0  0  0  0
  8 44  1  0  0  0  0
  9 45  1  0  0  0  0
 10 46  1  0  0  0  0
 11 47  1  0  0  0  0
 22 48  1  0  0  0  0
 22 49  1  0  0  0  0
 22 50  1  0  0  0  0
 23 51  1  0  0  0  0
 23 52  1  0  0  0  0
 23 53  1  0  0  0  0
 24 54  1  0  0  0  0
 24 55  1  0  0  0  0
 24 56  1  0  0  0  0
 25 57  1  0  0  0  0
 25 58  1  0  0  0  0
 29 59  1  0  0  0  0
 30 60  1  0  0  0  0
M  END
> <Name>
EZ_18b

> <SourceTag>
EZ_18b

> <Activity_FLAP>
100

> <Activity_sEH>
0.63

> <Gold.Version>
5.2

> <Gold.Id.Protein>
6HGV|6HGV_protein|mol2

> <Gold.PLP.Fitness>
95.3197

> <Gold.PLP.PLP>
-93.4683

> <Gold.PLP.part.hbond>
-9.8846

> <Gold.PLP.part.metal>
0.0000

> <Gold.PLP.part.buried>
8.6873

> <Gold.PLP.part.nonpolar>
-92.0957

> <Gold.PLP.part.repulsive>
0.1012

> <Gold.PLP.ligand.clash>
0.0000

> <Gold.PLP.ligand.torsion>
1.4026

> <Gold.PLP.Chemscore.Hbond>
0.8119

> <Gold.PLP.Chemscore.CHOScore>
0.0000

> <Gold.PLP.Chemscore.Metal>
0.0000

> <Gold.Chemscore.Hbonds>
donor molecule, donor type, donor heavy atom, donor atom, acceptor molecule, acceptor atom, score
      L1  H    29    59       P1   854  0.16
      L1  H    30    60       P1   854  0.03
      P1  H  1247  3847       L1    32  0.62

> <Gold.PLP.Chemscore.Internal.Correction>
0.5424

> <Gold.Protein.RotatedTorsions>
[ 3525  925  924  922 ] final  167.50 input   59.99 | X-H torsion
[ 3781 1176 1175 1172 ] final  -20.75 input   60.00 | X-H torsion
[ 4531 1957 1955 1953 ] final -147.18 input   60.00 | X-H torsion
[ 3847 1247 1246 1244 ] final -161.78 input   60.00 | X-H torsion
[ 4507 1931 1930 1928 ] final  -21.22 input   60.00 | X-H torsion
[ 3677 1070 1069 1066 ] final -169.28 input   60.00 | X-H torsion

> <Gold.Protein.ActiveResidues>
 GLY266  PHE267  PRO268  GLU269  MET310  HIS334  ASP335  TRP336  GLY337  GLY338 
 MET339  LEU340  TRP342  TYR343  LEU358  ASN359  THR360  PRO361  ILE363  ALA365 
 MET369  SER370  PRO371  LEU372  GLU373  SER374  ILE375  LYS376  ALA377  ASN378 
 VAL380  PHE381  ASP382  TYR383  GLN384  PHE387  GLN388  LEU397  SER407  LEU408 
 PHE409  ARG410  LEU417  MET419  LEU428  PHE429  PHE459  TRP465  TYR466  ASN468 
 MET469  GLU470  ASN472  TRP473  ALA476  ASP496  PHE497  VAL498  LEU499  MET503 
 HIS524  TRP525 

> <Gold.Protein.RotatedAtoms>
   -2.1340  -30.2659  -29.5784 H   0  0  0  0  0  0  0  0  0  0  0  0  # atno 3525 bound_to 925 
  -11.0948  -22.9188  -31.2559 H   0  0  0  0  0  0  0  0  0  0  0  0  # atno 3677 bound_to 1070
  -10.6746  -37.0574  -33.9262 H   0  0  0  0  0  0  0  0  0  0  0  0  # atno 3781 bound_to 1176
  -14.9166  -27.2838  -37.9149 H   0  0  0  0  0  0  0  0  0  0  0  0  # atno 3847 bound_to 1247
  -13.4617  -25.3786  -39.3566 H   0  0  0  0  0  0  0  0  0  0  0  0  # atno 4507 bound_to 1931
   -1.2725  -33.2863  -37.0038 H   0  0  0  0  0  0  0  0  0  0  0  0  # atno 4531 bound_to 1957
   -2.9935  -29.7754  -30.8702 LP  0  0  0  0  0  0  0  0  0  0  0  0  # atno 5201 bound_to 925 
   -3.6211  -29.6392  -29.3688 LP  0  0  0  0  0  0  0  0  0  0  0  0  # atno 5202 bound_to 925 
   -9.3043  -36.3161  -33.4565 LP  0  0  0  0  0  0  0  0  0  0  0  0  # atno 5205 bound_to 1176
  -10.1273  -37.2583  -32.4070 LP  0  0  0  0  0  0  0  0  0  0  0  0  # atno 5206 bound_to 1176
   -2.7704  -33.8585  -36.7265 LP  0  0  0  0  0  0  0  0  0  0  0  0  # atno 5213 bound_to 1957
   -2.4998  -32.2482  -36.7501 LP  0  0  0  0  0  0  0  0  0  0  0  0  # atno 5214 bound_to 1957
  -14.5959  -28.8110  -37.4538 LP  0  0  0  0  0  0  0  0  0  0  0  0  # atno 5227 bound_to 1247
  -16.0538  -28.1480  -37.1352 LP  0  0  0  0  0  0  0  0  0  0  0  0  # atno 5228 bound_to 1247
  -13.2937  -24.2049  -40.4711 LP  0  0  0  0  0  0  0  0  0  0  0  0  # atno 5245 bound_to 1931
  -12.4365  -24.1449  -39.0825 LP  0  0  0  0  0  0  0  0  0  0  0  0  # atno 5246 bound_to 1931
  -12.3015  -22.3351  -30.3332 LP  0  0  0  0  0  0  0  0  0  0  0  0  # atno 5265 bound_to 1070
  -12.4638  -23.7801  -31.0764 LP  0  0  0  0  0  0  0  0  0  0  0  0  # atno 5266 bound_to 1070

$$$$
EZ_18b|Lisa_paper2_min|sdf|6|dock2
  -GOLD-  10202014313D 1   1.00000     0.00000

 60 63  0  0  0  0  0  0  0  0  1 V2000
   -3.0001  -30.9061  -32.8731 C   0  0  0  0  0  0  0  0  0  0  0  0
   -3.6217  -32.1511  -32.9422 C   0  0  0  0  0  0  0  0  0  0  0  0
   -3.6587  -29.7539  -33.3123 C   0  0  0  0  0  0  0  0  0  0  0  0
   -4.9184  -32.2866  -33.4505 C   0  0  0  0  0  0  0  0  0  0  0  0
  -11.4152  -25.5804  -34.2166 C   0  0  0  0  0  0  0  0  0  0  0  0
  -11.8759  -27.3853  -35.7551 C   0  0  0  0  0  0  0  0  0  0  0  0
  -16.1710  -24.4835  -38.6940 C   0  0  0  0  0  0  0  0  0  0  0  0
  -10.1583  -26.1252  -33.9537 C   0  0  0  0  0  0  0  0  0  0  0  0
  -10.6189  -27.9301  -35.4922 C   0  0  0  0  0  0  0  0  0  0  0  0
  -17.1752  -24.2749  -39.6393 C   0  0  0  0  0  0  0  0  0  0  0  0
  -17.8471  -24.9072  -37.0065 C   0  0  0  0  0  0  0  0  0  0  0  0
   -4.9622  -29.8720  -33.8263 C   0  0  0  0  0  0  0  0  0  0  0  0
   -5.5718  -31.1257  -33.8889 C   0  0  0  0  0  0  0  0  0  0  0  0
  -12.2739  -26.2105  -35.1173 C   0  0  0  0  0  0  0  0  0  0  0  0
  -16.5068  -24.7996  -37.3776 C   0  0  0  0  0  0  0  0  0  0  0  0
   -9.7602  -27.3000  -34.5915 C   0  0  0  0  0  0  0  0  0  0  0  0
  -18.5155  -24.3825  -39.2681 C   0  0  0  0  0  0  0  0  0  0  0  0
  -18.8515  -24.6986  -37.9517 C   0  0  0  0  0  0  0  0  0  0  0  0
   -6.8879  -29.5261  -34.6627 C   0  0  0  0  0  0  0  0  0  0  0  0
   -7.8268  -31.8283  -34.7036 C   0  0  0  0  0  0  0  0  0  0  0  0
  -14.2625  -25.6752  -36.5930 C   0  0  0  0  0  0  0  0  0  0  0  0
   -7.3438  -35.4523  -34.6324 C   0  0  0  0  0  0  0  0  0  0  0  0
   -9.4936  -34.1561  -34.7231 C   0  0  0  0  0  0  0  0  0  0  0  0
   -7.8031  -33.9050  -36.5636 C   0  0  0  0  0  0  0  0  0  0  0  0
   -8.0572  -28.8266  -35.2435 C   0  0  0  0  0  0  0  0  0  0  0  0
   -8.0059  -34.1461  -35.0684 C   0  0  0  0  0  0  0  0  0  0  0  0
   -5.7922  -28.8969  -34.3097 N   0  0  0  0  0  0  0  0  0  0  0  0
   -6.8270  -30.8865  -34.4358 N   0  0  0  0  0  0  0  0  0  0  0  0
  -13.5312  -25.6657  -35.3802 N   0  0  0  0  0  0  0  0  0  0  0  0
  -15.4878  -25.0117  -36.4193 N   0  0  0  0  0  0  0  0  0  0  0  0
   -8.8967  -31.4991  -35.1884 O   0  0  0  0  0  0  0  0  0  0  0  0
  -13.8760  -26.1894  -37.6378 O   0  0  0  0  0  0  0  0  0  0  0  0
   -8.5271  -27.8346  -34.3336 O   0  0  0  0  0  0  0  0  0  0  0  0
   -7.4034  -33.0674  -34.3472 O   0  0  0  0  0  0  0  0  0  0  0  0
  -19.7133  -24.1096  -40.4843 Cl  0  0  0  0  0  0  0  0  0  0  0  0
  -20.4935  -24.8438  -37.4306 Cl  0  0  0  0  0  0  0  0  0  0  0  0
   -1.9924  -30.8283  -32.4740 H   0  0  0  0  0  0  0  0  0  0  0  0
   -3.0906  -33.0342  -32.5955 H   0  0  0  0  0  0  0  0  0  0  0  0
   -3.1679  -28.7872  -33.2558 H   0  0  0  0  0  0  0  0  0  0  0  0
   -5.3794  -33.2662  -33.4936 H   0  0  0  0  0  0  0  0  0  0  0  0
  -11.7151  -24.6643  -33.7139 H   0  0  0  0  0  0  0  0  0  0  0  0
  -12.5367  -27.8851  -36.4588 H   0  0  0  0  0  0  0  0  0  0  0  0
  -15.1297  -24.3987  -38.9942 H   0  0  0  0  0  0  0  0  0  0  0  0
   -9.4938  -25.6297  -33.2512 H   0  0  0  0  0  0  0  0  0  0  0  0
  -10.3144  -28.8457  -35.9921 H   0  0  0  0  0  0  0  0  0  0  0  0
  -16.8950  -24.0308  -40.6610 H   0  0  0  0  0  0  0  0  0  0  0  0
  -18.1030  -25.1528  -35.9777 H   0  0  0  0  0  0  0  0  0  0  0  0
   -6.2760  -35.4490  -34.8786 H   0  0  0  0  0  0  0  0  0  0  0  0
   -7.4520  -35.6196  -33.5558 H   0  0  0  0  0  0  0  0  0  0  0  0
   -7.7803  -36.3075  -35.1611 H   0  0  0  0  0  0  0  0  0  0  0  0
   -9.9727  -33.2208  -35.0342 H   0  0  0  0  0  0  0  0  0  0  0  0
   -9.6422  -34.2338  -33.6400 H   0  0  0  0  0  0  0  0  0  0  0  0
  -10.0146  -34.9897  -35.2052 H   0  0  0  0  0  0  0  0  0  0  0  0
   -8.2779  -32.9681  -36.8766 H   0  0  0  0  0  0  0  0  0  0  0  0
   -6.7407  -33.8579  -36.8240 H   0  0  0  0  0  0  0  0  0  0  0  0
   -8.2713  -34.7011  -37.1537 H   0  0  0  0  0  0  0  0  0  0  0  0
   -7.8078  -28.3294  -36.1952 H   0  0  0  0  0  0  0  0  0  0  0  0
   -8.8853  -29.5233  -35.4533 H   0  0  0  0  0  0  0  0  0  0  0  0
  -13.9862  -25.1959  -34.5903 H   0  0  0  0  0  0  0  0  0  0  0  0
  -15.6713  -24.6343  -35.4931 H   0  0  0  0  0  0  0  0  0  0  0  0
  1  2  2  0  0  0  0
  1  3  1  0  0  0  0
  2  4  1  0  0  0  0
  3 12  2  0  0  0  0
  4 13  2  0  0  0  0
  5  8  1  0  0  0  0
  5 14  2  0  0  0  0
  6  9  2  0  0  0  0
  6 14  1  0  0  0  0
  7 10  1  0  0  0  0
  7 15  2  0  0  0  0
  8 16  2  0  0  0  0
  9 16  1  0  0  0  0
 10 17  2  0  0  0  0
 11 15  1  0  0  0  0
 11 18  2  0  0  0  0
 12 13  1  0  0  0  0
 12 27  1  0  0  0  0
 13 28  1  0  0  0  0
 14 29  1  0  0  0  0
 15 30  1  0  0  0  0
 16 33  1  0  0  0  0
 17 18  1  0  0  0  0
 17 35  1  0  0  0  0
 18 36  1  0  0  0  0
 19 25  1  0  0  0  0
 19 27  2  0  0  0  0
 19 28  1  0  0  0  0
 20 28  1  0  0  0  0
 20 31  2  0  0  0  0
 20 34  1  0  0  0  0
 21 29  1  0  0  0  0
 21 30  1  0  0  0  0
 21 32  2  0  0  0  0
 22 26  1  0  0  0  0
 23 26  1  0  0  0  0
 24 26  1  0  0  0  0
 25 33  1  0  0  0  0
 26 34  1  0  0  0  0
  1 37  1  0  0  0  0
  2 38  1  0  0  0  0
  3 39  1  0  0  0  0
  4 40  1  0  0  0  0
  5 41  1  0  0  0  0
  6 42  1  0  0  0  0
  7 43  1  0  0  0  0
  8 44  1  0  0  0  0
  9 45  1  0  0  0  0
 10 46  1  0  0  0  0
 11 47  1  0  0  0  0
 22 48  1  0  0  0  0
 22 49  1  0  0  0  0
 22 50  1  0  0  0  0
 23 51  1  0  0  0  0
 23 52  1  0  0  0  0
 23 53  1  0  0  0  0
 24 54  1  0  0  0  0
 24 55  1  0  0  0  0
 24 56  1  0  0  0  0
 25 57  1  0  0  0  0
 25 58  1  0  0  0  0
 29 59  1  0  0  0  0
 30 60  1  0  0  0  0
M  END
> <Name>
EZ_18b

> <SourceTag>
EZ_18b

> <Activity_FLAP>
100

> <Activity_sEH>
0.63

> <Gold.Version>
5.2

> <Gold.Id.Protein>
6HGV|6HGV_protein|mol2

> <Gold.PLP.Fitness>
93.4614

> <Gold.PLP.PLP>
-87.2024

> <Gold.PLP.part.hbond>
-7.0840

> <Gold.PLP.part.metal>
0.0000

> <Gold.PLP.part.buried>
4.2455

> <Gold.PLP.part.nonpolar>
-85.4220

> <Gold.PLP.part.repulsive>
0.0929

> <Gold.PLP.ligand.clash>
0.8891

> <Gold.PLP.ligand.torsion>
1.1509

> <Gold.PLP.Chemscore.Hbond>
2.3419

> <Gold.PLP.Chemscore.CHOScore>
0.0000

> <Gold.PLP.Chemscore.Metal>
0.0000

> <Gold.Chemscore.Hbonds>
donor molecule, donor type, donor heavy atom, donor atom, acceptor molecule, acceptor atom, score
      L1  H    29    59       P1   853  0.31
      L1  H    30    60       P1   853  0.29
      P1  H  1247  3847       L1    32  0.74
      P1  H  1931  4507       L1    32  1.00

> <Gold.PLP.Chemscore.Internal.Correction>
0.4770

> <Gold.Protein.RotatedTorsions>
[ 3525  925  924  922 ] final  161.22 input   59.99 | X-H torsion
[ 3781 1176 1175 1172 ] final -144.17 input   60.00 | X-H torsion
[ 4531 1957 1955 1953 ] final  -58.14 input   60.00 | X-H torsion
[ 3847 1247 1246 1244 ] final  157.05 input   60.00 | X-H torsion
[ 4507 1931 1930 1928 ] final   -4.36 input   60.00 | X-H torsion
[ 3677 1070 1069 1066 ] final  -59.15 input   60.00 | X-H torsion

> <Gold.Protein.ActiveResidues>
 GLY266  PHE267  PRO268  GLU269  MET310  HIS334  ASP335  TRP336  GLY337  GLY338 
 MET339  LEU340  TRP342  TYR343  LEU358  ASN359  THR360  PRO361  ILE363  ALA365 
 MET369  SER370  PRO371  LEU372  GLU373  SER374  ILE375  LYS376  ALA377  ASN378 
 VAL380  PHE381  ASP382  TYR383  GLN384  PHE387  GLN388  LEU397  SER407  LEU408 
 PHE409  ARG410  LEU417  MET419  LEU428  PHE429  PHE459  TRP465  TYR466  ASN468 
 MET469  GLU470  ASN472  TRP473  ALA476  ASP496  PHE497  VAL498  LEU499  MET503 
 HIS524  TRP525 

> <Gold.Protein.RotatedAtoms>
   -2.0993  -30.2722  -29.6748 H   0  0  0  0  0  0  0  0  0  0  0  0  # atno 3525 bound_to 925 
  -12.3327  -23.8217  -31.1615 H   0  0  0  0  0  0  0  0  0  0  0  0  # atno 3677 bound_to 1070
   -9.2905  -36.3298  -33.4034 H   0  0  0  0  0  0  0  0  0  0  0  0  # atno 3781 bound_to 1176
  -14.4337  -27.7307  -37.9335 H   0  0  0  0  0  0  0  0  0  0  0  0  # atno 3847 bound_to 1247
  -13.3021  -25.3343  -39.1377 H   0  0  0  0  0  0  0  0  0  0  0  0  # atno 4507 bound_to 1931
   -2.0088  -32.2108  -36.8453 H   0  0  0  0  0  0  0  0  0  0  0  0  # atno 4531 bound_to 1957
   -3.0873  -29.7363  -30.8515 LP  0  0  0  0  0  0  0  0  0  0  0  0  # atno 5201 bound_to 925 
   -3.5622  -29.6721  -29.2904 LP  0  0  0  0  0  0  0  0  0  0  0  0  # atno 5202 bound_to 925 
  -10.1745  -37.2831  -32.4248 LP  0  0  0  0  0  0  0  0  0  0  0  0  # atno 5205 bound_to 1176
  -10.6509  -37.0240  -33.9651 LP  0  0  0  0  0  0  0  0  0  0  0  0  # atno 5206 bound_to 1176
   -1.4761  -33.7434  -36.9706 LP  0  0  0  0  0  0  0  0  0  0  0  0  # atno 5213 bound_to 1957
   -3.0527  -33.4463  -36.6658 LP  0  0  0  0  0  0  0  0  0  0  0  0  # atno 5214 bound_to 1957
  -15.1755  -28.9609  -37.1690 LP  0  0  0  0  0  0  0  0  0  0  0  0  # atno 5227 bound_to 1247
  -15.9606  -27.5480  -37.4014 LP  0  0  0  0  0  0  0  0  0  0  0  0  # atno 5228 bound_to 1247
  -13.4563  -24.4282  -40.4806 LP  0  0  0  0  0  0  0  0  0  0  0  0  # atno 5245 bound_to 1931
  -12.4347  -23.9663  -39.2934 LP  0  0  0  0  0  0  0  0  0  0  0  0  # atno 5246 bound_to 1931
  -11.0864  -22.7755  -31.1814 LP  0  0  0  0  0  0  0  0  0  0  0  0  # atno 5265 bound_to 1070
  -12.4322  -22.4305  -30.3232 LP  0  0  0  0  0  0  0  0  0  0  0  0  # atno 5266 bound_to 1070

$$$$
EZ_18b|Lisa_paper2_min|sdf|6|dock4
  -GOLD-  10202014323D 1   1.00000     0.00000

 60 63  0  0  0  0  0  0  0  0  1 V2000
  -10.8325  -33.9102  -35.3332 C   0  0  0  0  0  0  0  0  0  0  0  0
   -9.5029  -34.2965  -35.1778 C   0  0  0  0  0  0  0  0  0  0  0  0
  -11.2101  -32.5731  -35.1794 C   0  0  0  0  0  0  0  0  0  0  0  0
   -8.5087  -33.3628  -34.8647 C   0  0  0  0  0  0  0  0  0  0  0  0
  -12.6439  -26.7738  -34.3012 C   0  0  0  0  0  0  0  0  0  0  0  0
  -12.4428  -26.7239  -36.7082 C   0  0  0  0  0  0  0  0  0  0  0  0
  -18.9731  -25.2940  -36.9905 C   0  0  0  0  0  0  0  0  0  0  0  0
  -11.2986  -27.1270  -34.1961 C   0  0  0  0  0  0  0  0  0  0  0  0
  -11.0975  -27.0771  -36.6031 C   0  0  0  0  0  0  0  0  0  0  0  0
  -19.9920  -24.8185  -37.8159 C   0  0  0  0  0  0  0  0  0  0  0  0
  -17.3268  -24.2748  -38.4355 C   0  0  0  0  0  0  0  0  0  0  0  0
  -10.2237  -31.6216  -34.8645 C   0  0  0  0  0  0  0  0  0  0  0  0
   -8.8962  -32.0236  -34.7121 C   0  0  0  0  0  0  0  0  0  0  0  0
  -13.2160  -26.5724  -35.5573 C   0  0  0  0  0  0  0  0  0  0  0  0
  -17.6404  -25.0222  -37.3002 C   0  0  0  0  0  0  0  0  0  0  0  0
  -10.5253  -27.2786  -35.3470 C   0  0  0  0  0  0  0  0  0  0  0  0
  -19.6783  -24.0712  -38.9512 C   0  0  0  0  0  0  0  0  0  0  0  0
  -18.3457  -23.7993  -39.2610 C   0  0  0  0  0  0  0  0  0  0  0  0
   -9.1428  -29.8483  -34.4014 C   0  0  0  0  0  0  0  0  0  0  0  0
   -6.8297  -30.7300  -34.1658 C   0  0  0  0  0  0  0  0  0  0  0  0
  -15.2626  -25.7354  -36.7941 C   0  0  0  0  0  0  0  0  0  0  0  0
   -4.1847  -31.2717  -33.1887 C   0  0  0  0  0  0  0  0  0  0  0  0
   -4.3237  -33.3404  -34.6066 C   0  0  0  0  0  0  0  0  0  0  0  0
   -4.4898  -31.0755  -35.6792 C   0  0  0  0  0  0  0  0  0  0  0  0
   -8.8402  -28.4255  -34.1220 C   0  0  0  0  0  0  0  0  0  0  0  0
   -4.8069  -31.9020  -34.4338 C   0  0  0  0  0  0  0  0  0  0  0  0
  -10.3549  -30.2734  -34.6680 N   0  0  0  0  0  0  0  0  0  0  0  0
   -8.2015  -30.8582  -34.4107 N   0  0  0  0  0  0  0  0  0  0  0  0
  -14.5616  -26.2192  -35.6625 N   0  0  0  0  0  0  0  0  0  0  0  0
  -16.6073  -25.5041  -36.4624 N   0  0  0  0  0  0  0  0  0  0  0  0
   -6.3281  -29.6480  -33.9094 O   0  0  0  0  0  0  0  0  0  0  0  0
  -14.7620  -25.5484  -37.8985 O   0  0  0  0  0  0  0  0  0  0  0  0
   -9.2054  -27.6251  -35.2439 O   0  0  0  0  0  0  0  0  0  0  0  0
   -6.2267  -31.9419  -34.2628 O   0  0  0  0  0  0  0  0  0  0  0  0
  -20.9851  -23.5129  -39.9355 Cl  0  0  0  0  0  0  0  0  0  0  0  0
  -17.8937  -22.8811  -40.6543 Cl  0  0  0  0  0  0  0  0  0  0  0  0
  -11.5852  -34.6552  -35.5764 H   0  0  0  0  0  0  0  0  0  0  0  0
   -9.2316  -35.3420  -35.3014 H   0  0  0  0  0  0  0  0  0  0  0  0
  -12.2482  -32.2794  -35.3016 H   0  0  0  0  0  0  0  0  0  0  0  0
   -7.4819  -33.6890  -34.7490 H   0  0  0  0  0  0  0  0  0  0  0  0
  -13.2371  -26.6583  -33.3975 H   0  0  0  0  0  0  0  0  0  0  0  0
  -12.8779  -26.5696  -37.6924 H   0  0  0  0  0  0  0  0  0  0  0  0
  -19.2285  -25.8741  -36.1075 H   0  0  0  0  0  0  0  0  0  0  0  0
  -10.8586  -27.2825  -33.2148 H   0  0  0  0  0  0  0  0  0  0  0  0
  -10.5002  -27.1938  -37.5034 H   0  0  0  0  0  0  0  0  0  0  0  0
  -21.0250  -25.0387  -37.5584 H   0  0  0  0  0  0  0  0  0  0  0  0
  -16.2852  -24.0671  -38.6727 H   0  0  0  0  0  0  0  0  0  0  0  0
   -4.5289  -30.2392  -33.0612 H   0  0  0  0  0  0  0  0  0  0  0  0
   -4.4337  -31.8355  -32.2838 H   0  0  0  0  0  0  0  0  0  0  0  0
   -3.0932  -31.2248  -33.2779 H   0  0  0  0  0  0  0  0  0  0  0  0
   -4.7677  -33.7966  -35.4988 H   0  0  0  0  0  0  0  0  0  0  0  0
   -4.6321  -33.9604  -33.7570 H   0  0  0  0  0  0  0  0  0  0  0  0
   -3.2339  -33.3925  -34.6963 H   0  0  0  0  0  0  0  0  0  0  0  0
   -4.9360  -31.5274  -36.5725 H   0  0  0  0  0  0  0  0  0  0  0  0
   -4.8620  -30.0499  -35.5881 H   0  0  0  0  0  0  0  0  0  0  0  0
   -3.4091  -31.0391  -35.8581 H   0  0  0  0  0  0  0  0  0  0  0  0
   -9.3892  -28.0537  -33.2413 H   0  0  0  0  0  0  0  0  0  0  0  0
   -7.7677  -28.2695  -33.9204 H   0  0  0  0  0  0  0  0  0  0  0  0
  -15.1170  -26.3238  -34.8068 H   0  0  0  0  0  0  0  0  0  0  0  0
  -16.8784  -25.7052  -35.5031 H   0  0  0  0  0  0  0  0  0  0  0  0
  1  2  2  0  0  0  0
  1  3  1  0  0  0  0
  2  4  1  0  0  0  0
  3 12  2  0  0  0  0
  4 13  2  0  0  0  0
  5  8  1  0  0  0  0
  5 14  2  0  0  0  0
  6  9  2  0  0  0  0
  6 14  1  0  0  0  0
  7 10  1  0  0  0  0
  7 15  2  0  0  0  0
  8 16  2  0  0  0  0
  9 16  1  0  0  0  0
 10 17  2  0  0  0  0
 11 15  1  0  0  0  0
 11 18  2  0  0  0  0
 12 13  1  0  0  0  0
 12 27  1  0  0  0  0
 13 28  1  0  0  0  0
 14 29  1  0  0  0  0
 15 30  1  0  0  0  0
 16 33  1  0  0  0  0
 17 18  1  0  0  0  0
 17 35  1  0  0  0  0
 18 36  1  0  0  0  0
 19 25  1  0  0  0  0
 19 27  2  0  0  0  0
 19 28  1  0  0  0  0
 20 28  1  0  0  0  0
 20 31  2  0  0  0  0
 20 34  1  0  0  0  0
 21 29  1  0  0  0  0
 21 30  1  0  0  0  0
 21 32  2  0  0  0  0
 22 26  1  0  0  0  0
 23 26  1  0  0  0  0
 24 26  1  0  0  0  0
 25 33  1  0  0  0  0
 26 34  1  0  0  0  0
  1 37  1  0  0  0  0
  2 38  1  0  0  0  0
  3 39  1  0  0  0  0
  4 40  1  0  0  0  0
  5 41  1  0  0  0  0
  6 42  1  0  0  0  0
  7 43  1  0  0  0  0
  8 44  1  0  0  0  0
  9 45  1  0  0  0  0
 10 46  1  0  0  0  0
 11 47  1  0  0  0  0
 22 48  1  0  0  0  0
 22 49  1  0  0  0  0
 22 50  1  0  0  0  0
 23 51  1  0  0  0  0
 23 52  1  0  0  0  0
 23 53  1  0  0  0  0
 24 54  1  0  0  0  0
 24 55  1  0  0  0  0
 24 56  1  0  0  0  0
 25 57  1  0  0  0  0
 25 58  1  0  0  0  0
 29 59  1  0  0  0  0
 30 60  1  0  0  0  0
M  END
> <Name>
EZ_18b

> <SourceTag>
EZ_18b

> <Activity_FLAP>
100

> <Activity_sEH>
0.63

> <Gold.Version>
5.2

> <Gold.Id.Protein>
6HGV|6HGV_protein|mol2

> <Gold.PLP.Fitness>
93.3992

> <Gold.PLP.PLP>
-90.5737

> <Gold.PLP.part.hbond>
-7.6432

> <Gold.PLP.part.metal>
0.0000

> <Gold.PLP.part.buried>
2.8013

> <Gold.PLP.part.nonpolar>
-86.2765

> <Gold.PLP.part.repulsive>
0.1126

> <Gold.PLP.ligand.clash>
0.0000

> <Gold.PLP.ligand.torsion>
0.8919

> <Gold.PLP.Chemscore.Hbond>
0.9891

> <Gold.PLP.Chemscore.CHOScore>
0.0000

> <Gold.PLP.Chemscore.Metal>
0.0000

> <Gold.Chemscore.Hbonds>
donor molecule, donor type, donor heavy atom, donor atom, acceptor molecule, acceptor atom, score
      P1  H  1256  3854       L1    27  0.03
      P1  H  1931  4507       L1    32  0.96

> <Gold.PLP.Chemscore.Internal.Correction>
0.4138

> <Gold.Protein.RotatedTorsions>
[ 3525  925  924  922 ] final -140.55 input   59.99 | X-H torsion
[ 3781 1176 1175 1172 ] final -172.04 input   60.00 | X-H torsion
[ 4531 1957 1955 1953 ] final  -35.73 input   60.00 | X-H torsion
[ 3847 1247 1246 1244 ] final -122.08 input   60.00 | X-H torsion
[ 4507 1931 1930 1928 ] final   -5.96 input   60.00 | X-H torsion
[ 3677 1070 1069 1066 ] final  -24.26 input   60.00 | X-H torsion

> <Gold.Protein.ActiveResidues>
 GLY266  PHE267  PRO268  GLU269  MET310  HIS334  ASP335  TRP336  GLY337  GLY338 
 MET339  LEU340  TRP342  TYR343  LEU358  ASN359  THR360  PRO361  ILE363  ALA365 
 MET369  SER370  PRO371  LEU372  GLU373  SER374  ILE375  LYS376  ALA377  ASN378 
 VAL380  PHE381  ASP382  TYR383  GLN384  PHE387  GLN388  LEU397  SER407  LEU408 
 PHE409  ARG410  LEU417  MET419  LEU428  PHE429  PHE459  TRP465  TYR466  ASN468 
 MET469  GLU470  ASN472  TRP473  ALA476  ASP496  PHE497  VAL498  LEU499  MET503 
 HIS524  TRP525 

> <Gold.Protein.RotatedAtoms>
   -2.7164  -30.0613  -29.0386 H   0  0  0  0  0  0  0  0  0  0  0  0  # atno 3525 bound_to 925 
  -12.7054  -23.5631  -30.8310 H   0  0  0  0  0  0  0  0  0  0  0  0  # atno 3677 bound_to 1070
   -9.2493  -36.4629  -32.9746 H   0  0  0  0  0  0  0  0  0  0  0  0  # atno 3781 bound_to 1176
  -15.5132  -27.2244  -37.7034 H   0  0  0  0  0  0  0  0  0  0  0  0  # atno 3847 bound_to 1247
  -13.3184  -25.3414  -39.1570 H   0  0  0  0  0  0  0  0  0  0  0  0  # atno 4507 bound_to 1931
   -2.3662  -32.2154  -36.7774 H   0  0  0  0  0  0  0  0  0  0  0  0  # atno 4531 bound_to 1957
   -2.2851  -30.1084  -30.6070 LP  0  0  0  0  0  0  0  0  0  0  0  0  # atno 5201 bound_to 925 
   -3.7429  -29.5123  -30.1756 LP  0  0  0  0  0  0  0  0  0  0  0  0  # atno 5202 bound_to 925 
  -10.5268  -37.4249  -32.6737 LP  0  0  0  0  0  0  0  0  0  0  0  0  # atno 5205 bound_to 1176
  -10.3401  -36.7481  -34.1480 LP  0  0  0  0  0  0  0  0  0  0  0  0  # atno 5206 bound_to 1176
   -1.2991  -33.4239  -36.9987 LP  0  0  0  0  0  0  0  0  0  0  0  0  # atno 5213 bound_to 1957
   -2.8698  -33.7612  -36.7060 LP  0  0  0  0  0  0  0  0  0  0  0  0  # atno 5214 bound_to 1957
  -14.3120  -28.3212  -37.7526 LP  0  0  0  0  0  0  0  0  0  0  0  0  # atno 5227 bound_to 1247
  -15.7369  -28.6976  -37.0494 LP  0  0  0  0  0  0  0  0  0  0  0  0  # atno 5228 bound_to 1247
  -13.4421  -24.4061  -40.4829 LP  0  0  0  0  0  0  0  0  0  0  0  0  # atno 5245 bound_to 1931
  -12.4325  -23.9812  -39.2718 LP  0  0  0  0  0  0  0  0  0  0  0  0  # atno 5246 bound_to 1931
  -11.2103  -23.2787  -31.4071 LP  0  0  0  0  0  0  0  0  0  0  0  0  # atno 5265 bound_to 1070
  -11.9331  -22.1878  -30.4304 LP  0  0  0  0  0  0  0  0  0  0  0  0  # atno 5266 bound_to 1070

$$$$
EZ_18b|Lisa_paper2_min|sdf|6|dock10
  -GOLD-  10202014343D 1   1.00000     0.00000

 60 63  0  0  0  0  0  0  0  0  1 V2000
   -8.9903  -32.8384  -29.8088 C   0  0  0  0  0  0  0  0  0  0  0  0
   -7.6189  -32.8439  -30.0549 C   0  0  0  0  0  0  0  0  0  0  0  0
   -9.8591  -32.1081  -30.6249 C   0  0  0  0  0  0  0  0  0  0  0  0
   -7.0710  -32.1226  -31.1215 C   0  0  0  0  0  0  0  0  0  0  0  0
  -11.2333  -25.0261  -35.5864 C   0  0  0  0  0  0  0  0  0  0  0  0
  -12.3346  -27.0443  -36.3286 C   0  0  0  0  0  0  0  0  0  0  0  0
  -16.6236  -23.1851  -39.7175 C   0  0  0  0  0  0  0  0  0  0  0  0
  -10.3436  -25.7895  -34.8305 C   0  0  0  0  0  0  0  0  0  0  0  0
  -11.4449  -27.8077  -35.5727 C   0  0  0  0  0  0  0  0  0  0  0  0
  -17.9395  -23.0165  -40.1484 C   0  0  0  0  0  0  0  0  0  0  0  0
  -17.4073  -24.4641  -37.8237 C   0  0  0  0  0  0  0  0  0  0  0  0
   -9.3252  -31.3773  -31.7011 C   0  0  0  0  0  0  0  0  0  0  0  0
   -7.9497  -31.3927  -31.9352 C   0  0  0  0  0  0  0  0  0  0  0  0
  -12.2288  -25.6536  -36.3354 C   0  0  0  0  0  0  0  0  0  0  0  0
  -16.3574  -23.9089  -38.5552 C   0  0  0  0  0  0  0  0  0  0  0  0
  -10.4494  -27.1803  -34.8237 C   0  0  0  0  0  0  0  0  0  0  0  0
  -18.9893  -23.5718  -39.4168 C   0  0  0  0  0  0  0  0  0  0  0  0
  -18.7233  -24.2956  -38.2544 C   0  0  0  0  0  0  0  0  0  0  0  0
   -9.0256  -30.1425  -33.4079 C   0  0  0  0  0  0  0  0  0  0  0  0
   -6.5581  -30.2775  -33.6850 C   0  0  0  0  0  0  0  0  0  0  0  0
  -14.5092  -25.0824  -37.2802 C   0  0  0  0  0  0  0  0  0  0  0  0
   -3.2373  -31.5949  -32.9034 C   0  0  0  0  0  0  0  0  0  0  0  0
   -4.3985  -31.2954  -35.1106 C   0  0  0  0  0  0  0  0  0  0  0  0
   -3.8651  -29.2899  -33.6958 C   0  0  0  0  0  0  0  0  0  0  0  0
   -9.3034  -29.2466  -34.5542 C   0  0  0  0  0  0  0  0  0  0  0  0
   -4.2565  -30.7669  -33.6848 C   0  0  0  0  0  0  0  0  0  0  0  0
   -9.9721  -30.5985  -32.6223 N   0  0  0  0  0  0  0  0  0  0  0  0
   -7.7672  -30.5841  -33.0508 N   0  0  0  0  0  0  0  0  0  0  0  0
  -13.1188  -24.8901  -37.0915 N   0  0  0  0  0  0  0  0  0  0  0  0
  -15.0224  -24.0801  -38.1190 N   0  0  0  0  0  0  0  0  0  0  0  0
   -6.5204  -29.5508  -34.6642 O   0  0  0  0  0  0  0  0  0  0  0  0
  -15.1624  -25.9932  -36.7811 O   0  0  0  0  0  0  0  0  0  0  0  0
   -9.5766  -27.9293  -34.0821 O   0  0  0  0  0  0  0  0  0  0  0  0
   -5.5313  -30.8957  -33.0485 O   0  0  0  0  0  0  0  0  0  0  0  0
  -20.5977  -23.3254  -40.0005 Cl  0  0  0  0  0  0  0  0  0  0  0  0
  -19.9811  -25.0054  -37.3042 Cl  0  0  0  0  0  0  0  0  0  0  0  0
   -9.3902  -33.4072  -28.9738 H   0  0  0  0  0  0  0  0  0  0  0  0
   -6.9614  -33.4185  -29.4071 H   0  0  0  0  0  0  0  0  0  0  0  0
  -10.9265  -32.1082  -30.4268 H   0  0  0  0  0  0  0  0  0  0  0  0
   -6.0010  -32.1433  -31.2914 H   0  0  0  0  0  0  0  0  0  0  0  0
  -11.1416  -23.9429  -35.5845 H   0  0  0  0  0  0  0  0  0  0  0  0
  -13.1065  -27.5442  -36.9084 H   0  0  0  0  0  0  0  0  0  0  0  0
  -15.8128  -22.7496  -40.2959 H   0  0  0  0  0  0  0  0  0  0  0  0
   -9.5702  -25.2949  -34.2492 H   0  0  0  0  0  0  0  0  0  0  0  0
  -11.5324  -28.8909  -35.5714 H   0  0  0  0  0  0  0  0  0  0  0  0
  -18.1281  -22.4507  -41.0573 H   0  0  0  0  0  0  0  0  0  0  0  0
  -17.1935  -25.0266  -36.9170 H   0  0  0  0  0  0  0  0  0  0  0  0
   -3.1324  -31.2186  -31.8796 H   0  0  0  0  0  0  0  0  0  0  0  0
   -3.5245  -32.6504  -32.8584 H   0  0  0  0  0  0  0  0  0  0  0  0
   -2.2438  -31.5258  -33.3614 H   0  0  0  0  0  0  0  0  0  0  0  0
   -5.1288  -30.7043  -35.6749 H   0  0  0  0  0  0  0  0  0  0  0  0
   -4.7705  -32.3263  -35.1094 H   0  0  0  0  0  0  0  0  0  0  0  0
   -3.4444  -31.2718  -35.6471 H   0  0  0  0  0  0  0  0  0  0  0  0
   -4.5960  -28.6958  -34.2562 H   0  0  0  0  0  0  0  0  0  0  0  0
   -3.7945  -28.8839  -32.6814 H   0  0  0  0  0  0  0  0  0  0  0  0
   -2.9007  -29.1460  -34.1963 H   0  0  0  0  0  0  0  0  0  0  0  0
   -8.4498  -29.1922  -35.2497 H   0  0  0  0  0  0  0  0  0  0  0  0
  -10.1718  -29.5913  -35.1391 H   0  0  0  0  0  0  0  0  0  0  0  0
  -12.7121  -24.0821  -37.5748 H   0  0  0  0  0  0  0  0  0  0  0  0
  -14.3580  -23.3894  -38.4587 H   0  0  0  0  0  0  0  0  0  0  0  0
  1  2  2  0  0  0  0
  1  3  1  0  0  0  0
  2  4  1  0  0  0  0
  3 12  2  0  0  0  0
  4 13  2  0  0  0  0
  5  8  1  0  0  0  0
  5 14  2  0  0  0  0
  6  9  2  0  0  0  0
  6 14  1  0  0  0  0
  7 10  1  0  0  0  0
  7 15  2  0  0  0  0
  8 16  2  0  0  0  0
  9 16  1  0  0  0  0
 10 17  2  0  0  0  0
 11 15  1  0  0  0  0
 11 18  2  0  0  0  0
 12 13  1  0  0  0  0
 12 27  1  0  0  0  0
 13 28  1  0  0  0  0
 14 29  1  0  0  0  0
 15 30  1  0  0  0  0
 16 33  1  0  0  0  0
 17 18  1  0  0  0  0
 17 35  1  0  0  0  0
 18 36  1  0  0  0  0
 19 25  1  0  0  0  0
 19 27  2  0  0  0  0
 19 28  1  0  0  0  0
 20 28  1  0  0  0  0
 20 31  2  0  0  0  0
 20 34  1  0  0  0  0
 21 29  1  0  0  0  0
 21 30  1  0  0  0  0
 21 32  2  0  0  0  0
 22 26  1  0  0  0  0
 23 26  1  0  0  0  0
 24 26  1  0  0  0  0
 25 33  1  0  0  0  0
 26 34  1  0  0  0  0
  1 37  1  0  0  0  0
  2 38  1  0  0  0  0
  3 39  1  0  0  0  0
  4 40  1  0  0  0  0
  5 41  1  0  0  0  0
  6 42  1  0  0  0  0
  7 43  1  0  0  0  0
  8 44  1  0  0  0  0
  9 45  1  0  0  0  0
 10 46  1  0  0  0  0
 11 47  1  0  0  0  0
 22 48  1  0  0  0  0
 22 49  1  0  0  0  0
 22 50  1  0  0  0  0
 23 51  1  0  0  0  0
 23 52  1  0  0  0  0
 23 53  1  0  0  0  0
 24 54  1  0  0  0  0
 24 55  1  0  0  0  0
 24 56  1  0  0  0  0
 25 57  1  0  0  0  0
 25 58  1  0  0  0  0
 29 59  1  0  0  0  0
 30 60  1  0  0  0  0
M  END
> <Name>
EZ_18b

> <SourceTag>
EZ_18b

> <Activity_FLAP>
100

> <Activity_sEH>
0.63

> <Gold.Version>
5.2

> <Gold.Id.Protein>
6HGV|6HGV_protein|mol2

> <Gold.PLP.Fitness>
91.4258

> <Gold.PLP.PLP>
-88.5890

> <Gold.PLP.part.hbond>
-9.8594

> <Gold.PLP.part.metal>
0.0000

> <Gold.PLP.part.buried>
4.2652

> <Gold.PLP.part.nonpolar>
-84.3706

> <Gold.PLP.part.repulsive>
0.0812

> <Gold.PLP.ligand.clash>
0.0000

> <Gold.PLP.ligand.torsion>
1.2340

> <Gold.PLP.Chemscore.Hbond>
1.0996

> <Gold.PLP.Chemscore.CHOScore>
0.0000

> <Gold.PLP.Chemscore.Metal>
0.0000

> <Gold.Chemscore.Hbonds>
donor molecule, donor type, donor heavy atom, donor atom, acceptor molecule, acceptor atom, score
      L1  H    29    59       P1  1931  0.30
      P1  H  1247  3847       L1    32  0.80

> <Gold.PLP.Chemscore.Internal.Correction>
0.3982

> <Gold.Protein.RotatedTorsions>
[ 3525  925  924  922 ] final  133.40 input   59.99 | X-H torsion
[ 3781 1176 1175 1172 ] final  -15.09 input   60.00 | X-H torsion
[ 4531 1957 1955 1953 ] final  -79.70 input   60.00 | X-H torsion
[ 3847 1247 1246 1244 ] final -121.75 input   60.00 | X-H torsion
[ 4507 1931 1930 1928 ] final -102.28 input   60.00 | X-H torsion
[ 3677 1070 1069 1066 ] final   65.26 input   60.00 | X-H torsion

> <Gold.Protein.ActiveResidues>
 GLY266  PHE267  PRO268  GLU269  MET310  HIS334  ASP335  TRP336  GLY337  GLY338 
 MET339  LEU340  TRP342  TYR343  LEU358  ASN359  THR360  PRO361  ILE363  ALA365 
 MET369  SER370  PRO371  LEU372  GLU373  SER374  ILE375  LYS376  ALA377  ASN378 
 VAL380  PHE381  ASP382  TYR383  GLN384  PHE387  GLN388  LEU397  SER407  LEU408 
 PHE409  ARG410  LEU417  MET419  LEU428  PHE429  PHE459  TRP465  TYR466  ASN468 
 MET469  GLU470  ASN472  TRP473  ALA476  ASP496  PHE497  VAL498  LEU499  MET503 
 HIS524  TRP525 

> <Gold.Protein.RotatedAtoms>
   -2.0663  -30.2455  -30.1228 H   0  0  0  0  0  0  0  0  0  0  0  0  # atno 3525 bound_to 925 
  -12.3714  -22.3910  -30.3277 H   0  0  0  0  0  0  0  0  0  0  0  0  # atno 3677 bound_to 1070
  -10.7181  -37.1099  -33.8636 H   0  0  0  0  0  0  0  0  0  0  0  0  # atno 3781 bound_to 1176
  -15.5179  -27.2257  -37.7011 H   0  0  0  0  0  0  0  0  0  0  0  0  # atno 3847 bound_to 1247
  -13.6111  -24.7371  -40.3796 H   0  0  0  0  0  0  0  0  0  0  0  0  # atno 4507 bound_to 1931
   -1.6885  -32.3378  -36.9084 H   0  0  0  0  0  0  0  0  0  0  0  0  # atno 4531 bound_to 1957
   -3.4628  -29.5917  -30.6429 LP  0  0  0  0  0  0  0  0  0  0  0  0  # atno 5201 bound_to 925 
   -3.2199  -29.8435  -29.0478 LP  0  0  0  0  0  0  0  0  0  0  0  0  # atno 5202 bound_to 925 
   -9.3394  -36.3073  -33.5424 LP  0  0  0  0  0  0  0  0  0  0  0  0  # atno 5205 bound_to 1176
  -10.0484  -37.2142  -32.3841 LP  0  0  0  0  0  0  0  0  0  0  0  0  # atno 5206 bound_to 1176
   -1.7472  -33.9641  -36.9229 LP  0  0  0  0  0  0  0  0  0  0  0  0  # atno 5213 bound_to 1957
   -3.1042  -33.0976  -36.6499 LP  0  0  0  0  0  0  0  0  0  0  0  0  # atno 5214 bound_to 1957
  -14.3113  -28.3162  -37.7548 LP  0  0  0  0  0  0  0  0  0  0  0  0  # atno 5227 bound_to 1247
  -15.7329  -28.7013  -37.0495 LP  0  0  0  0  0  0  0  0  0  0  0  0  # atno 5228 bound_to 1247
  -12.5137  -23.8136  -39.6110 LP  0  0  0  0  0  0  0  0  0  0  0  0  # atno 5245 bound_to 1931
  -13.0662  -25.1823  -38.9123 LP  0  0  0  0  0  0  0  0  0  0  0  0  # atno 5246 bound_to 1931
  -12.3950  -23.8086  -31.1264 LP  0  0  0  0  0  0  0  0  0  0  0  0  # atno 5265 bound_to 1070
  -11.0847  -22.8383  -31.2179 LP  0  0  0  0  0  0  0  0  0  0  0  0  # atno 5266 bound_to 1070

$$$$
EZ_18b|Lisa_paper2_min|sdf|6|dock9
  -GOLD-  10202014343D 1   1.00000     0.00000

 60 63  0  0  0  0  0  0  0  0  1 V2000
   -3.6239  -32.1955  -34.3014 C   0  0  0  0  0  0  0  0  0  0  0  0
   -4.1758  -32.9116  -33.2412 C   0  0  0  0  0  0  0  0  0  0  0  0
   -4.3899  -31.2654  -35.0101 C   0  0  0  0  0  0  0  0  0  0  0  0
   -5.5072  -32.7230  -32.8543 C   0  0  0  0  0  0  0  0  0  0  0  0
  -11.5289  -27.0744  -36.7095 C   0  0  0  0  0  0  0  0  0  0  0  0
  -10.8498  -25.3071  -35.2087 C   0  0  0  0  0  0  0  0  0  0  0  0
  -16.1617  -23.1999  -39.3240 C   0  0  0  0  0  0  0  0  0  0  0  0
  -10.5625  -27.9150  -36.1570 C   0  0  0  0  0  0  0  0  0  0  0  0
   -9.8834  -26.1477  -34.6562 C   0  0  0  0  0  0  0  0  0  0  0  0
  -17.4603  -23.0857  -39.8202 C   0  0  0  0  0  0  0  0  0  0  0  0
  -16.9610  -24.6517  -37.5661 C   0  0  0  0  0  0  0  0  0  0  0  0
   -5.7300  -31.0636  -34.6347 C   0  0  0  0  0  0  0  0  0  0  0  0
   -6.2686  -31.7880  -33.5706 C   0  0  0  0  0  0  0  0  0  0  0  0
  -11.6725  -25.7705  -36.2353 C   0  0  0  0  0  0  0  0  0  0  0  0
  -15.9120  -23.9829  -38.1969 C   0  0  0  0  0  0  0  0  0  0  0  0
   -9.7398  -27.4517  -35.1303 C   0  0  0  0  0  0  0  0  0  0  0  0
  -18.5093  -23.7546  -39.1893 C   0  0  0  0  0  0  0  0  0  0  0  0
  -18.2597  -24.5376  -38.0622 C   0  0  0  0  0  0  0  0  0  0  0  0
   -7.7479  -30.4098  -34.4660 C   0  0  0  0  0  0  0  0  0  0  0  0
   -8.5497  -31.7791  -32.5514 C   0  0  0  0  0  0  0  0  0  0  0  0
  -13.9608  -25.2447  -37.1872 C   0  0  0  0  0  0  0  0  0  0  0  0
   -7.7825  -33.7506  -29.5702 C   0  0  0  0  0  0  0  0  0  0  0  0
   -8.4703  -31.3481  -29.8241 C   0  0  0  0  0  0  0  0  0  0  0  0
  -10.0440  -33.1794  -30.5155 C   0  0  0  0  0  0  0  0  0  0  0  0
   -9.0092  -29.6785  -34.7266 C   0  0  0  0  0  0  0  0  0  0  0  0
   -8.5802  -32.7542  -30.4101 C   0  0  0  0  0  0  0  0  0  0  0  0
   -6.6607  -30.2175  -35.1746 N   0  0  0  0  0  0  0  0  0  0  0  0
   -7.5846  -31.3524  -33.4706 N   0  0  0  0  0  0  0  0  0  0  0  0
  -12.6390  -24.9296  -36.7879 N   0  0  0  0  0  0  0  0  0  0  0  0
  -14.5946  -24.0990  -37.6943 N   0  0  0  0  0  0  0  0  0  0  0  0
   -9.6807  -31.3221  -32.5591 O   0  0  0  0  0  0  0  0  0  0  0  0
  -14.4703  -26.3574  -37.0999 O   0  0  0  0  0  0  0  0  0  0  0  0
   -8.7917  -28.2763  -34.5882 O   0  0  0  0  0  0  0  0  0  0  0  0
   -8.0205  -32.7175  -31.7262 O   0  0  0  0  0  0  0  0  0  0  0  0
  -20.0960  -23.5709  -39.8502 Cl  0  0  0  0  0  0  0  0  0  0  0  0
  -19.5175  -25.3883  -37.2358 Cl  0  0  0  0  0  0  0  0  0  0  0  0
   -2.5872  -32.3609  -34.5816 H   0  0  0  0  0  0  0  0  0  0  0  0
   -3.5619  -33.6305  -32.7041 H   0  0  0  0  0  0  0  0  0  0  0  0
   -3.9533  -30.7113  -35.8353 H   0  0  0  0  0  0  0  0  0  0  0  0
   -5.9125  -33.2926  -32.0263 H   0  0  0  0  0  0  0  0  0  0  0  0
  -12.1647  -27.4460  -37.5091 H   0  0  0  0  0  0  0  0  0  0  0  0
  -10.9526  -24.2928  -34.8313 H   0  0  0  0  0  0  0  0  0  0  0  0
  -15.3513  -22.6758  -39.8240 H   0  0  0  0  0  0  0  0  0  0  0  0
  -10.4556  -28.9298  -36.5305 H   0  0  0  0  0  0  0  0  0  0  0  0
   -9.2454  -25.7810  -33.8566 H   0  0  0  0  0  0  0  0  0  0  0  0
  -17.6362  -22.4724  -40.7004 H   0  0  0  0  0  0  0  0  0  0  0  0
  -16.7602  -25.2601  -36.6864 H   0  0  0  0  0  0  0  0  0  0  0  0
   -7.8589  -34.7610  -29.9874 H   0  0  0  0  0  0  0  0  0  0  0  0
   -6.7240  -33.4759  -29.5157 H   0  0  0  0  0  0  0  0  0  0  0  0
   -8.1784  -33.8069  -28.5496 H   0  0  0  0  0  0  0  0  0  0  0  0
   -9.0412  -30.6299  -30.4236 H   0  0  0  0  0  0  0  0  0  0  0  0
   -7.4307  -31.0013  -29.8342 H   0  0  0  0  0  0  0  0  0  0  0  0
   -8.8386  -31.3099  -28.7938 H   0  0  0  0  0  0  0  0  0  0  0  0
  -10.6165  -32.4648  -31.1180 H   0  0  0  0  0  0  0  0  0  0  0  0
  -10.1442  -34.1713  -30.9680 H   0  0  0  0  0  0  0  0  0  0  0  0
  -10.5165  -33.1984  -29.5267 H   0  0  0  0  0  0  0  0  0  0  0  0
   -9.3920  -29.8683  -35.7428 H   0  0  0  0  0  0  0  0  0  0  0  0
   -9.8048  -29.9760  -34.0239 H   0  0  0  0  0  0  0  0  0  0  0  0
  -12.3545  -23.9537  -36.9230 H   0  0  0  0  0  0  0  0  0  0  0  0
  -14.0442  -23.2440  -37.7049 H   0  0  0  0  0  0  0  0  0  0  0  0
  1  2  2  0  0  0  0
  1  3  1  0  0  0  0
  2  4  1  0  0  0  0
  3 12  2  0  0  0  0
  4 13  2  0  0  0  0
  5  8  1  0  0  0  0
  5 14  2  0  0  0  0
  6  9  2  0  0  0  0
  6 14  1  0  0  0  0
  7 10  1  0  0  0  0
  7 15  2  0  0  0  0
  8 16  2  0  0  0  0
  9 16  1  0  0  0  0
 10 17  2  0  0  0  0
 11 15  1  0  0  0  0
 11 18  2  0  0  0  0
 12 13  1  0  0  0  0
 12 27  1  0  0  0  0
 13 28  1  0  0  0  0
 14 29  1  0  0  0  0
 15 30  1  0  0  0  0
 16 33  1  0  0  0  0
 17 18  1  0  0  0  0
 17 35  1  0  0  0  0
 18 36  1  0  0  0  0
 19 25  1  0  0  0  0
 19 27  2  0  0  0  0
 19 28  1  0  0  0  0
 20 28  1  0  0  0  0
 20 31  2  0  0  0  0
 20 34  1  0  0  0  0
 21 29  1  0  0  0  0
 21 30  1  0  0  0  0
 21 32  2  0  0  0  0
 22 26  1  0  0  0  0
 23 26  1  0  0  0  0
 24 26  1  0  0  0  0
 25 33  1  0  0  0  0
 26 34  1  0  0  0  0
  1 37  1  0  0  0  0
  2 38  1  0  0  0  0
  3 39  1  0  0  0  0
  4 40  1  0  0  0  0
  5 41  1  0  0  0  0
  6 42  1  0  0  0  0
  7 43  1  0  0  0  0
  8 44  1  0  0  0  0
  9 45  1  0  0  0  0
 10 46  1  0  0  0  0
 11 47  1  0  0  0  0
 22 48  1  0  0  0  0
 22 49  1  0  0  0  0
 22 50  1  0  0  0  0
 23 51  1  0  0  0  0
 23 52  1  0  0  0  0
 23 53  1  0  0  0  0
 24 54  1  0  0  0  0
 24 55  1  0  0  0  0
 24 56  1  0  0  0  0
 25 57  1  0  0  0  0
 25 58  1  0  0  0  0
 29 59  1  0  0  0  0
 30 60  1  0  0  0  0
M  END
> <Name>
EZ_18b

> <SourceTag>
EZ_18b

> <Activity_FLAP>
100

> <Activity_sEH>
0.63

> <Gold.Version>
5.2

> <Gold.Id.Protein>
6HGV|6HGV_protein|mol2

> <Gold.PLP.Fitness>
90.5725

> <Gold.PLP.PLP>
-89.4670

> <Gold.PLP.part.hbond>
-9.5381

> <Gold.PLP.part.metal>
0.0000

> <Gold.PLP.part.buried>
8.1133

> <Gold.PLP.part.nonpolar>
-88.1545

> <Gold.PLP.part.repulsive>
0.0862

> <Gold.PLP.ligand.clash>
0.0000

> <Gold.PLP.ligand.torsion>
1.4120

> <Gold.PLP.Chemscore.Hbond>
0.6345

> <Gold.PLP.Chemscore.CHOScore>
0.0000

> <Gold.PLP.Chemscore.Metal>
0.0000

> <Gold.Chemscore.Hbonds>
donor molecule, donor type, donor heavy atom, donor atom, acceptor molecule, acceptor atom, score
      L1  H    29    59       P1   854  0.06
      L1  H    30    60       P1   854  0.02
      P1  H  1247  3847       L1    32  0.55

> <Gold.PLP.Chemscore.Internal.Correction>
0.3982

> <Gold.Protein.RotatedTorsions>
[ 3525  925  924  922 ] final    6.42 input   59.99 | X-H torsion
[ 3781 1176 1175 1172 ] final  -15.00 input   60.00 | X-H torsion
[ 4531 1957 1955 1953 ] final  145.46 input   60.00 | X-H torsion
[ 3847 1247 1246 1244 ] final -168.64 input   60.00 | X-H torsion
[ 4507 1931 1930 1928 ] final   11.22 input   60.00 | X-H torsion
[ 3677 1070 1069 1066 ] final    4.31 input   60.00 | X-H torsion

> <Gold.Protein.ActiveResidues>
 GLY266  PHE267  PRO268  GLU269  MET310  HIS334  ASP335  TRP336  GLY337  GLY338 
 MET339  LEU340  TRP342  TYR343  LEU358  ASN359  THR360  PRO361  ILE363  ALA365 
 MET369  SER370  PRO371  LEU372  GLU373  SER374  ILE375  LYS376  ALA377  ASN378 
 VAL380  PHE381  ASP382  TYR383  GLN384  PHE387  GLN388  LEU397  SER407  LEU408 
 PHE409  ARG410  LEU417  MET419  LEU428  PHE429  PHE459  TRP465  TYR466  ASN468 
 MET469  GLU470  ASN472  TRP473  ALA476  ASP496  PHE497  VAL498  LEU499  MET503 
 HIS524  TRP525 

> <Gold.Protein.RotatedAtoms>
   -3.5347  -29.5656  -30.5576 H   0  0  0  0  0  0  0  0  0  0  0  0  # atno 3525 bound_to 925 
  -12.8117  -23.1967  -30.5701 H   0  0  0  0  0  0  0  0  0  0  0  0  # atno 3677 bound_to 1070
  -10.7187  -37.1107  -33.8625 H   0  0  0  0  0  0  0  0  0  0  0  0  # atno 3781 bound_to 1176
  -14.8186  -27.3349  -37.9338 H   0  0  0  0  0  0  0  0  0  0  0  0  # atno 3847 bound_to 1247
  -13.1360  -25.2353  -38.9732 H   0  0  0  0  0  0  0  0  0  0  0  0  # atno 4507 bound_to 1931
   -1.9733  -34.0431  -36.8837 H   0  0  0  0  0  0  0  0  0  0  0  0  # atno 4531 bound_to 1957
   -3.1192  -29.8901  -29.0180 LP  0  0  0  0  0  0  0  0  0  0  0  0  # atno 5201 bound_to 925 
   -2.0846  -30.2298  -30.2349 LP  0  0  0  0  0  0  0  0  0  0  0  0  # atno 5202 bound_to 925 
   -9.3400  -36.3073  -33.5437 LP  0  0  0  0  0  0  0  0  0  0  0  0  # atno 5205 bound_to 1176
  -10.0472  -37.2135  -32.3839 LP  0  0  0  0  0  0  0  0  0  0  0  0  # atno 5206 bound_to 1176
   -3.0641  -32.8576  -36.6534 LP  0  0  0  0  0  0  0  0  0  0  0  0  # atno 5213 bound_to 1957
   -1.5005  -32.4871  -36.9443 LP  0  0  0  0  0  0  0  0  0  0  0  0  # atno 5214 bound_to 1957
  -14.6788  -28.8659  -37.4003 LP  0  0  0  0  0  0  0  0  0  0  0  0  # atno 5227 bound_to 1247
  -16.0696  -28.0416  -37.1697 LP  0  0  0  0  0  0  0  0  0  0  0  0  # atno 5228 bound_to 1247
  -13.5770  -24.6466  -40.4247 LP  0  0  0  0  0  0  0  0  0  0  0  0  # atno 5245 bound_to 1931
  -12.4813  -23.8476  -39.5150 LP  0  0  0  0  0  0  0  0  0  0  0  0  # atno 5246 bound_to 1931
  -11.5156  -23.6267  -31.4551 LP  0  0  0  0  0  0  0  0  0  0  0  0  # atno 5265 bound_to 1070
  -11.5208  -22.2088  -30.6451 LP  0  0  0  0  0  0  0  0  0  0  0  0  # atno 5266 bound_to 1070

$$$$
EZ_19|Lisa_paper2_min|sdf|7|dock7
  -GOLD-  10202014343D 1   1.00000     0.00000

 45 48  0  0  0  0  0  0  0  0  1 V2000
   -3.0514  -31.0002  -33.1100 C   0  0  0  0  0  0  0  0  0  0  0  0
   -3.3455  -32.1703  -33.8137 C   0  0  0  0  0  0  0  0  0  0  0  0
   -3.9391  -29.9169  -33.1083 C   0  0  0  0  0  0  0  0  0  0  0  0
   -4.5340  -32.3015  -34.5396 C   0  0  0  0  0  0  0  0  0  0  0  0
  -11.5906  -25.9158  -34.1616 C   0  0  0  0  0  0  0  0  0  0  0  0
  -11.7496  -27.0966  -36.2635 C   0  0  0  0  0  0  0  0  0  0  0  0
  -17.9080  -24.8323  -37.0283 C   0  0  0  0  0  0  0  0  0  0  0  0
  -10.3360  -26.4828  -33.9380 C   0  0  0  0  0  0  0  0  0  0  0  0
  -10.4950  -27.6635  -36.0399 C   0  0  0  0  0  0  0  0  0  0  0  0
  -18.9417  -24.6119  -37.9384 C   0  0  0  0  0  0  0  0  0  0  0  0
  -16.2860  -24.4476  -38.7770 C   0  0  0  0  0  0  0  0  0  0  0  0
   -5.1378  -30.0313  -33.8324 C   0  0  0  0  0  0  0  0  0  0  0  0
   -5.4031  -31.2100  -34.5238 C   0  0  0  0  0  0  0  0  0  0  0  0
  -12.2975  -26.2228  -35.3244 C   0  0  0  0  0  0  0  0  0  0  0  0
  -16.5802  -24.7501  -37.4475 C   0  0  0  0  0  0  0  0  0  0  0  0
   -9.7881  -27.3565  -34.8771 C   0  0  0  0  0  0  0  0  0  0  0  0
  -18.6476  -24.3092  -39.2679 C   0  0  0  0  0  0  0  0  0  0  0  0
  -17.3197  -24.2271  -39.6873 C   0  0  0  0  0  0  0  0  0  0  0  0
   -7.0380  -29.7386  -34.7617 C   0  0  0  0  0  0  0  0  0  0  0  0
  -14.3267  -25.6622  -36.7341 C   0  0  0  0  0  0  0  0  0  0  0  0
   -8.3266  -29.1985  -35.2335 C   0  0  0  0  0  0  0  0  0  0  0  0
   -6.1646  -29.1291  -33.9918 N   0  0  0  0  0  0  0  0  0  0  0  0
   -6.6246  -30.9947  -35.1086 N   0  0  0  0  0  0  0  0  0  0  0  0
  -13.5526  -25.6559  -35.5481 N   0  0  0  0  0  0  0  0  0  0  0  0
  -15.5319  -24.9733  -36.5238 N   0  0  0  0  0  0  0  0  0  0  0  0
  -13.9875  -26.1934  -37.7867 O   0  0  0  0  0  0  0  0  0  0  0  0
   -8.5579  -27.9124  -34.6579 O   0  0  0  0  0  0  0  0  0  0  0  0
  -19.9722  -24.0499  -40.3479 Cl  0  0  0  0  0  0  0  0  0  0  0  0
  -16.8919  -23.8582  -41.3212 Cl  0  0  0  0  0  0  0  0  0  0  0  0
   -2.1196  -30.9286  -32.5546 H   0  0  0  0  0  0  0  0  0  0  0  0
   -2.6370  -32.9950  -33.7984 H   0  0  0  0  0  0  0  0  0  0  0  0
   -3.7013  -29.0126  -32.5575 H   0  0  0  0  0  0  0  0  0  0  0  0
   -4.7644  -33.2093  -35.0854 H   0  0  0  0  0  0  0  0  0  0  0  0
  -12.0080  -25.2361  -33.4231 H   0  0  0  0  0  0  0  0  0  0  0  0
  -12.2914  -27.3431  -37.1731 H   0  0  0  0  0  0  0  0  0  0  0  0
  -18.1481  -25.0659  -35.9941 H   0  0  0  0  0  0  0  0  0  0  0  0
   -9.7902  -26.2397  -33.0304 H   0  0  0  0  0  0  0  0  0  0  0  0
  -10.0734  -28.3435  -36.7751 H   0  0  0  0  0  0  0  0  0  0  0  0
  -19.9706  -24.6785  -37.5937 H   0  0  0  0  0  0  0  0  0  0  0  0
  -15.2482  -24.3862  -39.0985 H   0  0  0  0  0  0  0  0  0  0  0  0
   -8.3558  -29.0884  -36.3325 H   0  0  0  0  0  0  0  0  0  0  0  0
   -9.1740  -29.8523  -34.9599 H   0  0  0  0  0  0  0  0  0  0  0  0
   -7.1278  -31.6506  -35.6914 H   0  0  0  0  0  0  0  0  0  0  0  0
  -13.9701  -25.1701  -34.7473 H   0  0  0  0  0  0  0  0  0  0  0  0
  -15.6751  -24.5838  -35.5954 H   0  0  0  0  0  0  0  0  0  0  0  0
  1  2  2  0  0  0  0
  1  3  1  0  0  0  0
  2  4  1  0  0  0  0
  3 12  2  0  0  0  0
  4 13  2  0  0  0  0
  5  8  1  0  0  0  0
  5 14  2  0  0  0  0
  6  9  2  0  0  0  0
  6 14  1  0  0  0  0
  7 10  1  0  0  0  0
  7 15  2  0  0  0  0
  8 16  2  0  0  0  0
  9 16  1  0  0  0  0
 10 17  2  0  0  0  0
 11 15  1  0  0  0  0
 11 18  2  0  0  0  0
 12 13  1  0  0  0  0
 12 22  1  0  0  0  0
 13 23  1  0  0  0  0
 14 24  1  0  0  0  0
 15 25  1  0  0  0  0
 16 27  1  0  0  0  0
 17 18  1  0  0  0  0
 17 28  1  0  0  0  0
 18 29  1  0  0  0  0
 19 21  1  0  0  0  0
 19 22  2  0  0  0  0
 19 23  1  0  0  0  0
 20 24  1  0  0  0  0
 20 25  1  0  0  0  0
 20 26  2  0  0  0  0
 21 27  1  0  0  0  0
  1 30  1  0  0  0  0
  2 31  1  0  0  0  0
  3 32  1  0  0  0  0
  4 33  1  0  0  0  0
  5 34  1  0  0  0  0
  6 35  1  0  0  0  0
  7 36  1  0  0  0  0
  8 37  1  0  0  0  0
  9 38  1  0  0  0  0
 10 39  1  0  0  0  0
 11 40  1  0  0  0  0
 21 41  1  0  0  0  0
 21 42  1  0  0  0  0
 23 43  1  0  0  0  0
 24 44  1  0  0  0  0
 25 45  1  0  0  0  0
M  END
> <Name>
EZ_19

> <SourceTag>
EZ_19

> <Activity_sEH>
10.5

> <Activity_FLAP>
0.6

> <Gold.Version>
5.2

> <Gold.Id.Protein>
6HGV|6HGV_protein|mol2

> <Gold.PLP.Fitness>
89.4266

> <Gold.PLP.PLP>
-81.7841

> <Gold.PLP.part.hbond>
-6.6086

> <Gold.PLP.part.metal>
0.0000

> <Gold.PLP.part.buried>
4.6914

> <Gold.PLP.part.nonpolar>
-80.7077

> <Gold.PLP.part.repulsive>
0.0596

> <Gold.PLP.ligand.clash>
0.0000

> <Gold.PLP.ligand.torsion>
0.7371

> <Gold.PLP.Chemscore.Hbond>
2.4018

> <Gold.PLP.Chemscore.CHOScore>
0.0000

> <Gold.PLP.Chemscore.Metal>
0.0000

> <Gold.Chemscore.Hbonds>
donor molecule, donor type, donor heavy atom, donor atom, acceptor molecule, acceptor atom, score
      L1  H    24    44       P1   853  0.38
      L1  H    25    45       P1   853  0.34
      P1  H  1247  3847       L1    26  0.69
      P1  H  1931  4507       L1    26  0.99

> <Gold.PLP.Chemscore.Internal.Correction>
0.3577

> <Gold.Protein.RotatedTorsions>
[ 3525  925  924  922 ] final  -83.84 input   59.99 | X-H torsion
[ 3781 1176 1175 1172 ] final  178.28 input   60.00 | X-H torsion
[ 4531 1957 1955 1953 ] final   76.00 input   60.00 | X-H torsion
[ 3847 1247 1246 1244 ] final  156.29 input   60.00 | X-H torsion
[ 4507 1931 1930 1928 ] final  -12.70 input   60.00 | X-H torsion
[ 3677 1070 1069 1066 ] final -123.52 input   60.00 | X-H torsion

> <Gold.Protein.ActiveResidues>
 GLY266  PHE267  PRO268  GLU269  MET310  HIS334  ASP335  TRP336  GLY337  GLY338 
 MET339  LEU340  TRP342  TYR343  LEU358  ASN359  THR360  PRO361  ILE363  ALA365 
 MET369  SER370  PRO371  LEU372  GLU373  SER374  ILE375  LYS376  ALA377  ASN378 
 VAL380  PHE381  ASP382  TYR383  GLN384  PHE387  GLN388  LEU397  SER407  LEU408 
 PHE409  ARG410  LEU417  MET419  LEU428  PHE429  PHE459  TRP465  TYR466  ASN468 
 MET469  GLU470  ASN472  TRP473  ALA476  ASP496  PHE497  VAL498  LEU499  MET503 
 HIS524  TRP525 

> <Gold.Protein.RotatedAtoms>
   -3.5041  -29.6997  -29.2377 H   0  0  0  0  0  0  0  0  0  0  0  0  # atno 3525 bound_to 925 
  -11.4203  -23.5405  -31.4499 H   0  0  0  0  0  0  0  0  0  0  0  0  # atno 3677 bound_to 1070
   -9.2785  -36.5341  -32.8366 H   0  0  0  0  0  0  0  0  0  0  0  0  # atno 3781 bound_to 1176
  -14.4277  -27.7416  -37.9316 H   0  0  0  0  0  0  0  0  0  0  0  0  # atno 3847 bound_to 1247
  -13.3846  -25.3647  -39.2417 H   0  0  0  0  0  0  0  0  0  0  0  0  # atno 4507 bound_to 1931
   -2.9464  -33.6501  -36.6919 H   0  0  0  0  0  0  0  0  0  0  0  0  # atno 4531 bound_to 1957
   -2.0735  -30.2787  -29.7536 LP  0  0  0  0  0  0  0  0  0  0  0  0  # atno 5201 bound_to 925 
   -3.1613  -29.7061  -30.8285 LP  0  0  0  0  0  0  0  0  0  0  0  0  # atno 5202 bound_to 925 
  -10.6262  -37.4453  -32.7963 LP  0  0  0  0  0  0  0  0  0  0  0  0  # atno 5205 bound_to 1176
  -10.2113  -36.6561  -34.1644 LP  0  0  0  0  0  0  0  0  0  0  0  0  # atno 5206 bound_to 1176
   -2.2347  -32.1906  -36.7995 LP  0  0  0  0  0  0  0  0  0  0  0  0  # atno 5213 bound_to 1957
   -1.3500  -33.5497  -36.9912 LP  0  0  0  0  0  0  0  0  0  0  0  0  # atno 5214 bound_to 1957
  -15.1873  -28.9594  -37.1649 LP  0  0  0  0  0  0  0  0  0  0  0  0  # atno 5227 bound_to 1247
  -15.9548  -27.5385  -37.4072 LP  0  0  0  0  0  0  0  0  0  0  0  0  # atno 5228 bound_to 1247
  -13.3792  -24.3149  -40.4851 LP  0  0  0  0  0  0  0  0  0  0  0  0  # atno 5245 bound_to 1931
  -12.4287  -24.0490  -39.1842 LP  0  0  0  0  0  0  0  0  0  0  0  0  # atno 5246 bound_to 1931
  -11.6274  -22.1824  -30.5777 LP  0  0  0  0  0  0  0  0  0  0  0  0  # atno 5265 bound_to 1070
  -12.8101  -23.3068  -30.6365 LP  0  0  0  0  0  0  0  0  0  0  0  0  # atno 5266 bound_to 1070

$$$$
EZ_19|Lisa_paper2_min|sdf|7|dock5
  -GOLD-  10202014343D 1   1.00000     0.00000

 45 48  0  0  0  0  0  0  0  0  1 V2000
   -3.0702  -30.6810  -33.1552 C   0  0  0  0  0  0  0  0  0  0  0  0
   -3.3528  -31.8763  -33.8204 C   0  0  0  0  0  0  0  0  0  0  0  0
   -3.9859  -29.6213  -33.1555 C   0  0  0  0  0  0  0  0  0  0  0  0
   -4.5572  -32.0568  -34.5084 C   0  0  0  0  0  0  0  0  0  0  0  0
  -11.9871  -27.1618  -36.1156 C   0  0  0  0  0  0  0  0  0  0  0  0
  -11.7212  -25.7547  -34.1697 C   0  0  0  0  0  0  0  0  0  0  0  0
  -18.1054  -24.8860  -37.0001 C   0  0  0  0  0  0  0  0  0  0  0  0
  -10.7154  -27.6943  -35.9044 C   0  0  0  0  0  0  0  0  0  0  0  0
  -10.4495  -26.2873  -33.9584 C   0  0  0  0  0  0  0  0  0  0  0  0
  -19.1213  -24.6243  -37.9192 C   0  0  0  0  0  0  0  0  0  0  0  0
  -16.4530  -24.2634  -38.6490 C   0  0  0  0  0  0  0  0  0  0  0  0
   -5.2009  -29.7852  -33.8418 C   0  0  0  0  0  0  0  0  0  0  0  0
   -5.4541  -30.9880  -34.4953 C   0  0  0  0  0  0  0  0  0  0  0  0
  -12.4901  -26.1919  -35.2483 C   0  0  0  0  0  0  0  0  0  0  0  0
  -16.7712  -24.7055  -37.3650 C   0  0  0  0  0  0  0  0  0  0  0  0
   -9.9466  -27.2571  -34.8257 C   0  0  0  0  0  0  0  0  0  0  0  0
  -18.8031  -24.1821  -39.2033 C   0  0  0  0  0  0  0  0  0  0  0  0
  -17.4689  -24.0017  -39.5683 C   0  0  0  0  0  0  0  0  0  0  0  0
   -7.1334  -29.5658  -34.7234 C   0  0  0  0  0  0  0  0  0  0  0  0
  -14.5008  -25.5863  -36.6657 C   0  0  0  0  0  0  0  0  0  0  0  0
   -8.4486  -29.0715  -35.1717 C   0  0  0  0  0  0  0  0  0  0  0  0
   -6.2552  -28.9143  -33.9945 N   0  0  0  0  0  0  0  0  0  0  0  0
   -6.6967  -30.8195  -35.0502 N   0  0  0  0  0  0  0  0  0  0  0  0
  -13.7621  -25.6590  -35.4595 N   0  0  0  0  0  0  0  0  0  0  0  0
  -15.7409  -24.9706  -36.4321 N   0  0  0  0  0  0  0  0  0  0  0  0
  -14.1085  -26.0021  -37.7512 O   0  0  0  0  0  0  0  0  0  0  0  0
   -8.6997  -27.7792  -34.6186 O   0  0  0  0  0  0  0  0  0  0  0  0
  -20.1064  -23.8781  -40.2975 Cl  0  0  0  0  0  0  0  0  0  0  0  0
  -17.0115  -23.4584  -41.1445 Cl  0  0  0  0  0  0  0  0  0  0  0  0
   -2.1255  -30.5710  -32.6287 H   0  0  0  0  0  0  0  0  0  0  0  0
   -2.6226  -32.6817  -33.8045 H   0  0  0  0  0  0  0  0  0  0  0  0
   -3.7568  -28.6971  -32.6347 H   0  0  0  0  0  0  0  0  0  0  0  0
   -4.7787  -32.9841  -35.0243 H   0  0  0  0  0  0  0  0  0  0  0  0
  -12.5777  -27.5098  -36.9593 H   0  0  0  0  0  0  0  0  0  0  0  0
  -12.1028  -24.9994  -33.4874 H   0  0  0  0  0  0  0  0  0  0  0  0
  -18.3643  -25.2287  -36.0015 H   0  0  0  0  0  0  0  0  0  0  0  0
  -10.3292  -28.4495  -36.5834 H   0  0  0  0  0  0  0  0  0  0  0  0
   -9.8553  -25.9427  -33.1165 H   0  0  0  0  0  0  0  0  0  0  0  0
  -20.1555  -24.7689  -37.6171 H   0  0  0  0  0  0  0  0  0  0  0  0
  -15.4102  -24.1258  -38.9283 H   0  0  0  0  0  0  0  0  0  0  0  0
   -8.5101  -28.9874  -36.2716 H   0  0  0  0  0  0  0  0  0  0  0  0
   -9.2699  -29.7414  -34.8606 H   0  0  0  0  0  0  0  0  0  0  0  0
   -7.1985  -31.5031  -35.6015 H   0  0  0  0  0  0  0  0  0  0  0  0
  -14.2235  -25.2680  -34.6313 H   0  0  0  0  0  0  0  0  0  0  0  0
  -15.9278  -24.6761  -35.4769 H   0  0  0  0  0  0  0  0  0  0  0  0
  1  2  2  0  0  0  0
  1  3  1  0  0  0  0
  2  4  1  0  0  0  0
  3 12  2  0  0  0  0
  4 13  2  0  0  0  0
  5  8  1  0  0  0  0
  5 14  2  0  0  0  0
  6  9  2  0  0  0  0
  6 14  1  0  0  0  0
  7 10  1  0  0  0  0
  7 15  2  0  0  0  0
  8 16  2  0  0  0  0
  9 16  1  0  0  0  0
 10 17  2  0  0  0  0
 11 15  1  0  0  0  0
 11 18  2  0  0  0  0
 12 13  1  0  0  0  0
 12 22  1  0  0  0  0
 13 23  1  0  0  0  0
 14 24  1  0  0  0  0
 15 25  1  0  0  0  0
 16 27  1  0  0  0  0
 17 18  1  0  0  0  0
 17 28  1  0  0  0  0
 18 29  1  0  0  0  0
 19 21  1  0  0  0  0
 19 22  2  0  0  0  0
 19 23  1  0  0  0  0
 20 24  1  0  0  0  0
 20 25  1  0  0  0  0
 20 26  2  0  0  0  0
 21 27  1  0  0  0  0
  1 30  1  0  0  0  0
  2 31  1  0  0  0  0
  3 32  1  0  0  0  0
  4 33  1  0  0  0  0
  5 34  1  0  0  0  0
  6 35  1  0  0  0  0
  7 36  1  0  0  0  0
  8 37  1  0  0  0  0
  9 38  1  0  0  0  0
 10 39  1  0  0  0  0
 11 40  1  0  0  0  0
 21 41  1  0  0  0  0
 21 42  1  0  0  0  0
 23 43  1  0  0  0  0
 24 44  1  0  0  0  0
 25 45  1  0  0  0  0
M  END
> <Name>
EZ_19

> <SourceTag>
EZ_19

> <Activity_sEH>
10.5

> <Activity_FLAP>
0.6

> <Gold.Version>
5.2

> <Gold.Id.Protein>
6HGV|6HGV_protein|mol2

> <Gold.PLP.Fitness>
88.7383

> <Gold.PLP.PLP>
-82.2969

> <Gold.PLP.part.hbond>
-7.2899

> <Gold.PLP.part.metal>
0.0000

> <Gold.PLP.part.buried>
3.4381

> <Gold.PLP.part.nonpolar>
-81.0557

> <Gold.PLP.part.repulsive>
0.0710

> <Gold.PLP.ligand.clash>
0.0000

> <Gold.PLP.ligand.torsion>
0.7970

> <Gold.PLP.Chemscore.Hbond>
2.0601

> <Gold.PLP.Chemscore.CHOScore>
0.0000

> <Gold.PLP.Chemscore.Metal>
0.0000

> <Gold.Chemscore.Hbonds>
donor molecule, donor type, donor heavy atom, donor atom, acceptor molecule, acceptor atom, score
      L1  H    24    44       P1   853  0.23
      L1  H    25    45       P1   853  0.16
      P1  H  1247  3847       L1    26  0.67
      P1  H  1931  4507       L1    26  1.00

> <Gold.PLP.Chemscore.Internal.Correction>
0.3577

> <Gold.Protein.RotatedTorsions>
[ 3525  925  924  922 ] final  -55.59 input   59.99 | X-H torsion
[ 3781 1176 1175 1172 ] final   49.57 input   60.00 | X-H torsion
[ 4531 1957 1955 1953 ] final -154.90 input   60.00 | X-H torsion
[ 3847 1247 1246 1244 ] final  167.49 input   60.00 | X-H torsion
[ 4507 1931 1930 1928 ] final   -3.38 input   60.00 | X-H torsion
[ 3677 1070 1069 1066 ] final   70.57 input   60.00 | X-H torsion

> <Gold.Protein.ActiveResidues>
 GLY266  PHE267  PRO268  GLU269  MET310  HIS334  ASP335  TRP336  GLY337  GLY338 
 MET339  LEU340  TRP342  TYR343  LEU358  ASN359  THR360  PRO361  ILE363  ALA365 
 MET369  SER370  PRO371  LEU372  GLU373  SER374  ILE375  LYS376  ALA377  ASN378 
 VAL380  PHE381  ASP382  TYR383  GLN384  PHE387  GLN388  LEU397  SER407  LEU408 
 PHE409  ARG410  LEU417  MET419  LEU428  PHE429  PHE459  TRP465  TYR466  ASN468 
 MET469  GLU470  ASN472  TRP473  ALA476  ASP496  PHE497  VAL498  LEU499  MET503 
 HIS524  TRP525 

> <Gold.Protein.RotatedAtoms>
   -3.7289  -29.5674  -29.6128 H   0  0  0  0  0  0  0  0  0  0  0  0  # atno 3525 bound_to 925 
  -12.3001  -22.3422  -30.3349 H   0  0  0  0  0  0  0  0  0  0  0  0  # atno 3677 bound_to 1070
  -10.6954  -37.4477  -32.9212 H   0  0  0  0  0  0  0  0  0  0  0  0  # atno 3781 bound_to 1176
  -14.5277  -27.5897  -37.9505 H   0  0  0  0  0  0  0  0  0  0  0  0  # atno 3847 bound_to 1247
  -13.2921  -25.3296  -39.1262 H   0  0  0  0  0  0  0  0  0  0  0  0  # atno 4507 bound_to 1931
   -1.3015  -33.4089  -37.0004 H   0  0  0  0  0  0  0  0  0  0  0  0  # atno 4531 bound_to 1957
   -2.2687  -30.2315  -29.3397 LP  0  0  0  0  0  0  0  0  0  0  0  0  # atno 5201 bound_to 925 
   -2.7396  -29.8866  -30.8647 LP  0  0  0  0  0  0  0  0  0  0  0  0  # atno 5202 bound_to 925 
  -10.0912  -36.5786  -34.1572 LP  0  0  0  0  0  0  0  0  0  0  0  0  # atno 5205 bound_to 1176
   -9.3195  -36.6028  -32.7183 LP  0  0  0  0  0  0  0  0  0  0  0  0  # atno 5206 bound_to 1176
   -2.8608  -33.7713  -36.7078 LP  0  0  0  0  0  0  0  0  0  0  0  0  # atno 5213 bound_to 1957
   -2.3802  -32.2119  -36.7723 LP  0  0  0  0  0  0  0  0  0  0  0  0  # atno 5214 bound_to 1957
  -15.0153  -28.9651  -37.2303 LP  0  0  0  0  0  0  0  0  0  0  0  0  # atno 5227 bound_to 1247
  -16.0260  -27.6858  -37.3229 LP  0  0  0  0  0  0  0  0  0  0  0  0  # atno 5228 bound_to 1247
  -13.4648  -24.4418  -40.4789 LP  0  0  0  0  0  0  0  0  0  0  0  0  # atno 5245 bound_to 1931
  -12.4362  -23.9574  -39.3067 LP  0  0  0  0  0  0  0  0  0  0  0  0  # atno 5246 bound_to 1931
  -12.4620  -23.7810  -31.0777 LP  0  0  0  0  0  0  0  0  0  0  0  0  # atno 5265 bound_to 1070
  -11.0895  -22.9150  -31.2593 LP  0  0  0  0  0  0  0  0  0  0  0  0  # atno 5266 bound_to 1070

$$$$
EZ_19|Lisa_paper2_min|sdf|7|dock1
  -GOLD-  10202014343D 1   1.00000     0.00000

 45 48  0  0  0  0  0  0  0  0  1 V2000
   -3.0789  -30.6360  -33.2791 C   0  0  0  0  0  0  0  0  0  0  0  0
   -3.3540  -31.8196  -33.9677 C   0  0  0  0  0  0  0  0  0  0  0  0
   -4.0146  -29.5950  -33.2313 C   0  0  0  0  0  0  0  0  0  0  0  0
   -4.5706  -32.0069  -34.6320 C   0  0  0  0  0  0  0  0  0  0  0  0
  -12.0122  -27.1204  -36.1754 C   0  0  0  0  0  0  0  0  0  0  0  0
  -11.7054  -25.6225  -34.3047 C   0  0  0  0  0  0  0  0  0  0  0  0
  -18.0593  -24.7077  -37.1876 C   0  0  0  0  0  0  0  0  0  0  0  0
  -10.7579  -27.6804  -35.9327 C   0  0  0  0  0  0  0  0  0  0  0  0
  -10.4512  -26.1825  -34.0620 C   0  0  0  0  0  0  0  0  0  0  0  0
  -19.0679  -24.4683  -38.1208 C   0  0  0  0  0  0  0  0  0  0  0  0
  -16.3906  -24.2444  -38.8721 C   0  0  0  0  0  0  0  0  0  0  0  0
   -5.2421  -29.7659  -33.8933 C   0  0  0  0  0  0  0  0  0  0  0  0
   -5.4874  -30.9568  -34.5711 C   0  0  0  0  0  0  0  0  0  0  0  0
  -12.4860  -26.0914  -35.3614 C   0  0  0  0  0  0  0  0  0  0  0  0
  -16.7206  -24.5956  -37.5632 C   0  0  0  0  0  0  0  0  0  0  0  0
   -9.9775  -27.2115  -34.8760 C   0  0  0  0  0  0  0  0  0  0  0  0
  -18.7379  -24.1170  -39.4297 C   0  0  0  0  0  0  0  0  0  0  0  0
  -17.3992  -24.0050  -39.8055 C   0  0  0  0  0  0  0  0  0  0  0  0
   -7.1987  -29.5631  -34.7241 C   0  0  0  0  0  0  0  0  0  0  0  0
  -14.4786  -25.5064  -36.8125 C   0  0  0  0  0  0  0  0  0  0  0  0
   -8.5335  -29.0841  -35.1292 C   0  0  0  0  0  0  0  0  0  0  0  0
   -6.3164  -28.9126  -33.9994 N   0  0  0  0  0  0  0  0  0  0  0  0
   -6.7458  -30.7993  -35.0926 N   0  0  0  0  0  0  0  0  0  0  0  0
  -13.7404  -25.5311  -35.6041 N   0  0  0  0  0  0  0  0  0  0  0  0
  -15.6977  -24.8380  -36.6161 N   0  0  0  0  0  0  0  0  0  0  0  0
  -14.1019  -25.9985  -37.8714 O   0  0  0  0  0  0  0  0  0  0  0  0
   -8.7477  -27.7605  -34.6380 O   0  0  0  0  0  0  0  0  0  0  0  0
  -20.0327  -23.8363  -40.5401 Cl  0  0  0  0  0  0  0  0  0  0  0  0
  -16.9273  -23.5754  -41.4122 Cl  0  0  0  0  0  0  0  0  0  0  0  0
   -2.1243  -30.5203  -32.7719 H   0  0  0  0  0  0  0  0  0  0  0  0
   -2.6081  -32.6106  -33.9892 H   0  0  0  0  0  0  0  0  0  0  0  0
   -3.7912  -28.6797  -32.6926 H   0  0  0  0  0  0  0  0  0  0  0  0
   -4.7862  -32.9253  -35.1660 H   0  0  0  0  0  0  0  0  0  0  0  0
  -12.6120  -27.4937  -37.0016 H   0  0  0  0  0  0  0  0  0  0  0  0
  -12.0643  -24.8210  -33.6640 H   0  0  0  0  0  0  0  0  0  0  0  0
  -18.3273  -24.9793  -36.1697 H   0  0  0  0  0  0  0  0  0  0  0  0
  -10.3945  -28.4817  -36.5702 H   0  0  0  0  0  0  0  0  0  0  0  0
   -9.8478  -25.8129  -33.2374 H   0  0  0  0  0  0  0  0  0  0  0  0
  -20.1057  -24.5587  -37.8100 H   0  0  0  0  0  0  0  0  0  0  0  0
  -15.3444  -24.1599  -39.1596 H   0  0  0  0  0  0  0  0  0  0  0  0
   -8.6535  -29.0619  -36.2272 H   0  0  0  0  0  0  0  0  0  0  0  0
   -9.3405  -29.7285  -34.7371 H   0  0  0  0  0  0  0  0  0  0  0  0
   -7.2472  -31.4788  -35.6494 H   0  0  0  0  0  0  0  0  0  0  0  0
  -14.1874  -25.0768  -34.8007 H   0  0  0  0  0  0  0  0  0  0  0  0
  -15.8732  -24.4813  -35.6802 H   0  0  0  0  0  0  0  0  0  0  0  0
  1  2  2  0  0  0  0
  1  3  1  0  0  0  0
  2  4  1  0  0  0  0
  3 12  2  0  0  0  0
  4 13  2  0  0  0  0
  5  8  1  0  0  0  0
  5 14  2  0  0  0  0
  6  9  2  0  0  0  0
  6 14  1  0  0  0  0
  7 10  1  0  0  0  0
  7 15  2  0  0  0  0
  8 16  2  0  0  0  0
  9 16  1  0  0  0  0
 10 17  2  0  0  0  0
 11 15  1  0  0  0  0
 11 18  2  0  0  0  0
 12 13  1  0  0  0  0
 12 22  1  0  0  0  0
 13 23  1  0  0  0  0
 14 24  1  0  0  0  0
 15 25  1  0  0  0  0
 16 27  1  0  0  0  0
 17 18  1  0  0  0  0
 17 28  1  0  0  0  0
 18 29  1  0  0  0  0
 19 21  1  0  0  0  0
 19 22  2  0  0  0  0
 19 23  1  0  0  0  0
 20 24  1  0  0  0  0
 20 25  1  0  0  0  0
 20 26  2  0  0  0  0
 21 27  1  0  0  0  0
  1 30  1  0  0  0  0
  2 31  1  0  0  0  0
  3 32  1  0  0  0  0
  4 33  1  0  0  0  0
  5 34  1  0  0  0  0
  6 35  1  0  0  0  0
  7 36  1  0  0  0  0
  8 37  1  0  0  0  0
  9 38  1  0  0  0  0
 10 39  1  0  0  0  0
 11 40  1  0  0  0  0
 21 41  1  0  0  0  0
 21 42  1  0  0  0  0
 23 43  1  0  0  0  0
 24 44  1  0  0  0  0
 25 45  1  0  0  0  0
M  END
> <Name>
EZ_19

> <SourceTag>
EZ_19

> <Activity_sEH>
10.5

> <Activity_FLAP>
0.6

> <Gold.Version>
5.2

> <Gold.Id.Protein>
6HGV|6HGV_protein|mol2

> <Gold.PLP.Fitness>
88.5510

> <Gold.PLP.PLP>
-81.2022

> <Gold.PLP.part.hbond>
-7.0379

> <Gold.PLP.part.metal>
0.0000

> <Gold.PLP.part.buried>
4.0967

> <Gold.PLP.part.nonpolar>
-80.4507

> <Gold.PLP.part.repulsive>
0.0658

> <Gold.PLP.ligand.clash>
0.0000

> <Gold.PLP.ligand.torsion>
0.7612

> <Gold.PLP.Chemscore.Hbond>
2.3210

> <Gold.PLP.Chemscore.CHOScore>
0.0000

> <Gold.PLP.Chemscore.Metal>
0.0000

> <Gold.Chemscore.Hbonds>
donor molecule, donor type, donor heavy atom, donor atom, acceptor molecule, acceptor atom, score
      L1  H    24    44       P1   853  0.38
      L1  H    25    45       P1   853  0.27
      P1  H  1247  3847       L1    26  0.69
      P1  H  1931  4507       L1    26  0.99

> <Gold.PLP.Chemscore.Internal.Correction>
0.3577

> <Gold.Protein.RotatedTorsions>
[ 3525  925  924  922 ] final  -51.68 input   59.99 | X-H torsion
[ 3781 1176 1175 1172 ] final   40.63 input   60.00 | X-H torsion
[ 4531 1957 1955 1953 ] final  118.56 input   60.00 | X-H torsion
[ 3847 1247 1246 1244 ] final  172.41 input   60.00 | X-H torsion
[ 4507 1931 1930 1928 ] final    7.89 input   60.00 | X-H torsion
[ 3677 1070 1069 1066 ] final   74.98 input   60.00 | X-H torsion

> <Gold.Protein.ActiveResidues>
 GLY266  PHE267  PRO268  GLU269  MET310  HIS334  ASP335  TRP336  GLY337  GLY338 
 MET339  LEU340  TRP342  TYR343  LEU358  ASN359  THR360  PRO361  ILE363  ALA365 
 MET369  SER370  PRO371  LEU372  GLU373  SER374  ILE375  LYS376  ALA377  ASN378 
 VAL380  PHE381  ASP382  TYR383  GLN384  PHE387  GLN388  LEU397  SER407  LEU408 
 PHE409  ARG410  LEU417  MET419  LEU428  PHE429  PHE459  TRP465  TYR466  ASN468 
 MET469  GLU470  ASN472  TRP473  ALA476  ASP496  PHE497  VAL498  LEU499  MET503 
 HIS524  TRP525 

> <Gold.Protein.RotatedAtoms>
   -3.7455  -29.5546  -29.6732 H   0  0  0  0  0  0  0  0  0  0  0  0  # atno 3525 bound_to 925 
  -12.2386  -22.3060  -30.3446 H   0  0  0  0  0  0  0  0  0  0  0  0  # atno 3677 bound_to 1070
  -10.7561  -37.4386  -33.0536 H   0  0  0  0  0  0  0  0  0  0  0  0  # atno 3781 bound_to 1176
  -14.5798  -27.5287  -37.9534 H   0  0  0  0  0  0  0  0  0  0  0  0  # atno 3847 bound_to 1247
  -13.1724  -25.2609  -39.0047 H   0  0  0  0  0  0  0  0  0  0  0  0  # atno 4507 bound_to 1931
   -2.4012  -34.0405  -36.8023 H   0  0  0  0  0  0  0  0  0  0  0  0  # atno 4531 bound_to 1957
   -2.3094  -30.2181  -29.2917 LP  0  0  0  0  0  0  0  0  0  0  0  0  # atno 5201 bound_to 925 
   -2.6823  -29.9128  -30.8519 LP  0  0  0  0  0  0  0  0  0  0  0  0  # atno 5202 bound_to 925 
   -9.9666  -36.5063  -34.1285 LP  0  0  0  0  0  0  0  0  0  0  0  0  # atno 5205 bound_to 1176
   -9.3830  -36.6842  -32.6138 LP  0  0  0  0  0  0  0  0  0  0  0  0  # atno 5206 bound_to 1176
   -2.8452  -32.4790  -36.6885 LP  0  0  0  0  0  0  0  0  0  0  0  0  # atno 5213 bound_to 1957
   -1.2884  -32.8682  -36.9912 LP  0  0  0  0  0  0  0  0  0  0  0  0  # atno 5214 bound_to 1957
  -14.9416  -28.9568  -37.2623 LP  0  0  0  0  0  0  0  0  0  0  0  0  # atno 5227 bound_to 1247
  -16.0473  -27.7554  -37.2879 LP  0  0  0  0  0  0  0  0  0  0  0  0  # atno 5228 bound_to 1247
  -13.5541  -24.5997  -40.4418 LP  0  0  0  0  0  0  0  0  0  0  0  0  # atno 5245 bound_to 1931
  -12.4675  -23.8687  -39.4662 LP  0  0  0  0  0  0  0  0  0  0  0  0  # atno 5246 bound_to 1931
  -12.5144  -23.7530  -31.0360 LP  0  0  0  0  0  0  0  0  0  0  0  0  # atno 5265 bound_to 1070
  -11.0991  -22.9794  -31.2913 LP  0  0  0  0  0  0  0  0  0  0  0  0  # atno 5266 bound_to 1070

$$$$
EZ_19|Lisa_paper2_min|sdf|7|dock10
  -GOLD-  10202014343D 1   1.00000     0.00000

 45 48  0  0  0  0  0  0  0  0  1 V2000
   -4.4903  -31.2943  -35.4964 C   0  0  0  0  0  0  0  0  0  0  0  0
   -5.1137  -32.5442  -35.4957 C   0  0  0  0  0  0  0  0  0  0  0  0
   -5.2087  -30.1296  -35.1980 C   0  0  0  0  0  0  0  0  0  0  0  0
   -6.4739  -32.6768  -35.1974 C   0  0  0  0  0  0  0  0  0  0  0  0
  -11.3658  -25.1046  -35.7334 C   0  0  0  0  0  0  0  0  0  0  0  0
  -12.6889  -27.0957  -36.0830 C   0  0  0  0  0  0  0  0  0  0  0  0
  -16.9053  -23.3166  -39.6841 C   0  0  0  0  0  0  0  0  0  0  0  0
  -10.4762  -25.8341  -34.9448 C   0  0  0  0  0  0  0  0  0  0  0  0
  -11.7993  -27.8252  -35.2944 C   0  0  0  0  0  0  0  0  0  0  0  0
  -18.2301  -23.1315  -40.0790 C   0  0  0  0  0  0  0  0  0  0  0  0
  -17.6551  -24.5447  -37.7435 C   0  0  0  0  0  0  0  0  0  0  0  0
   -6.5762  -30.2442  -34.8962 C   0  0  0  0  0  0  0  0  0  0  0  0
   -7.1694  -31.5035  -34.9033 C   0  0  0  0  0  0  0  0  0  0  0  0
  -12.4722  -25.7354  -36.3025 C   0  0  0  0  0  0  0  0  0  0  0  0
  -16.6177  -24.0233  -38.5164 C   0  0  0  0  0  0  0  0  0  0  0  0
  -10.6928  -27.1945  -34.7253 C   0  0  0  0  0  0  0  0  0  0  0  0
  -19.2675  -23.6531  -39.3061 C   0  0  0  0  0  0  0  0  0  0  0  0
  -18.9801  -24.3597  -38.1382 C   0  0  0  0  0  0  0  0  0  0  0  0
   -8.6243  -29.9187  -34.3872 C   0  0  0  0  0  0  0  0  0  0  0  0
  -14.7656  -25.1551  -37.2096 C   0  0  0  0  0  0  0  0  0  0  0  0
   -9.9265  -29.3322  -34.0193 C   0  0  0  0  0  0  0  0  0  0  0  0
   -7.4953  -29.2723  -34.5733 N   0  0  0  0  0  0  0  0  0  0  0  0
   -8.4791  -31.2651  -34.5743 N   0  0  0  0  0  0  0  0  0  0  0  0
  -13.3622  -25.0057  -37.0913 N   0  0  0  0  0  0  0  0  0  0  0  0
  -15.2736  -24.2112  -38.1165 N   0  0  0  0  0  0  0  0  0  0  0  0
  -15.4326  -25.9889  -36.6054 O   0  0  0  0  0  0  0  0  0  0  0  0
   -9.8206  -27.9098  -33.9521 O   0  0  0  0  0  0  0  0  0  0  0  0
  -20.8879  -23.3875  -39.8466 Cl  0  0  0  0  0  0  0  0  0  0  0  0
  -20.2216  -25.0277  -37.1377 Cl  0  0  0  0  0  0  0  0  0  0  0  0
   -3.4313  -31.2236  -35.7318 H   0  0  0  0  0  0  0  0  0  0  0  0
   -4.5315  -33.4315  -35.7326 H   0  0  0  0  0  0  0  0  0  0  0  0
   -4.7144  -29.1634  -35.2005 H   0  0  0  0  0  0  0  0  0  0  0  0
   -6.9591  -33.6461  -35.1953 H   0  0  0  0  0  0  0  0  0  0  0  0
  -11.1872  -24.0450  -35.8979 H   0  0  0  0  0  0  0  0  0  0  0  0
  -13.5477  -27.5977  -36.5213 H   0  0  0  0  0  0  0  0  0  0  0  0
  -16.1042  -22.9074  -40.2946 H   0  0  0  0  0  0  0  0  0  0  0  0
   -9.6162  -25.3372  -34.5043 H   0  0  0  0  0  0  0  0  0  0  0  0
  -11.9734  -28.8846  -35.1270 H   0  0  0  0  0  0  0  0  0  0  0  0
  -18.4356  -22.5796  -40.9928 H   0  0  0  0  0  0  0  0  0  0  0  0
  -17.4245  -25.0939  -36.8327 H   0  0  0  0  0  0  0  0  0  0  0  0
  -10.7170  -29.5793  -34.7505 H   0  0  0  0  0  0  0  0  0  0  0  0
  -10.2808  -29.6949  -33.0379 H   0  0  0  0  0  0  0  0  0  0  0  0
   -9.2057  -31.9633  -34.4858 H   0  0  0  0  0  0  0  0  0  0  0  0
  -12.9446  -24.2624  -37.6612 H   0  0  0  0  0  0  0  0  0  0  0  0
  -14.5973  -23.5825  -38.5424 H   0  0  0  0  0  0  0  0  0  0  0  0
  1  2  2  0  0  0  0
  1  3  1  0  0  0  0
  2  4  1  0  0  0  0
  3 12  2  0  0  0  0
  4 13  2  0  0  0  0
  5  8  1  0  0  0  0
  5 14  2  0  0  0  0
  6  9  2  0  0  0  0
  6 14  1  0  0  0  0
  7 10  1  0  0  0  0
  7 15  2  0  0  0  0
  8 16  2  0  0  0  0
  9 16  1  0  0  0  0
 10 17  2  0  0  0  0
 11 15  1  0  0  0  0
 11 18  2  0  0  0  0
 12 13  1  0  0  0  0
 12 22  1  0  0  0  0
 13 23  1  0  0  0  0
 14 24  1  0  0  0  0
 15 25  1  0  0  0  0
 16 27  1  0  0  0  0
 17 18  1  0  0  0  0
 17 28  1  0  0  0  0
 18 29  1  0  0  0  0
 19 21  1  0  0  0  0
 19 22  2  0  0  0  0
 19 23  1  0  0  0  0
 20 24  1  0  0  0  0
 20 25  1  0  0  0  0
 20 26  2  0  0  0  0
 21 27  1  0  0  0  0
  1 30  1  0  0  0  0
  2 31  1  0  0  0  0
  3 32  1  0  0  0  0
  4 33  1  0  0  0  0
  5 34  1  0  0  0  0
  6 35  1  0  0  0  0
  7 36  1  0  0  0  0
  8 37  1  0  0  0  0
  9 38  1  0  0  0  0
 10 39  1  0  0  0  0
 11 40  1  0  0  0  0
 21 41  1  0  0  0  0
 21 42  1  0  0  0  0
 23 43  1  0  0  0  0
 24 44  1  0  0  0  0
 25 45  1  0  0  0  0
M  END
> <Name>
EZ_19

> <SourceTag>
EZ_19

> <Activity_sEH>
10.5

> <Activity_FLAP>
0.6

> <Gold.Version>
5.2

> <Gold.Id.Protein>
6HGV|6HGV_protein|mol2

> <Gold.PLP.Fitness>
87.7021

> <Gold.PLP.PLP>
-85.2117

> <Gold.PLP.part.hbond>
-8.4549

> <Gold.PLP.part.metal>
0.0000

> <Gold.PLP.part.buried>
4.3563

> <Gold.PLP.part.nonpolar>
-81.2449

> <Gold.PLP.part.repulsive>
0.0699

> <Gold.PLP.ligand.clash>
1.0460

> <Gold.PLP.ligand.torsion>
0.8598

> <Gold.PLP.Chemscore.Hbond>
1.2091

> <Gold.PLP.Chemscore.CHOScore>
0.0000

> <Gold.PLP.Chemscore.Metal>
0.0000

> <Gold.Chemscore.Hbonds>
donor molecule, donor type, donor heavy atom, donor atom, acceptor molecule, acceptor atom, score
      L1  H    24    44       P1  1931  0.49
      P1  H  1247  3847       L1    26  0.71

> <Gold.PLP.Chemscore.Internal.Correction>
0.3577

> <Gold.Protein.RotatedTorsions>
[ 3525  925  924  922 ] final -133.01 input   59.99 | X-H torsion
[ 3781 1176 1175 1172 ] final   39.20 input   60.00 | X-H torsion
[ 4531 1957 1955 1953 ] final  -80.27 input   60.00 | X-H torsion
[ 3847 1247 1246 1244 ] final  -92.96 input   60.00 | X-H torsion
[ 4507 1931 1930 1928 ] final -131.70 input   60.00 | X-H torsion
[ 3677 1070 1069 1066 ] final -179.03 input   60.00 | X-H torsion

> <Gold.Protein.ActiveResidues>
 GLY266  PHE267  PRO268  GLU269  MET310  HIS334  ASP335  TRP336  GLY337  GLY338 
 MET339  LEU340  TRP342  TYR343  LEU358  ASN359  THR360  PRO361  ILE363  ALA365 
 MET369  SER370  PRO371  LEU372  GLU373  SER374  ILE375  LYS376  ALA377  ASN378 
 VAL380  PHE381  ASP382  TYR383  GLN384  PHE387  GLN388  LEU397  SER407  LEU408 
 PHE409  ARG410  LEU417  MET419  LEU428  PHE429  PHE459  TRP465  TYR466  ASN468 
 MET469  GLU470  ASN472  TRP473  ALA476  ASP496  PHE497  VAL498  LEU499  MET503 
 HIS524  TRP525 

> <Gold.Protein.RotatedAtoms>
   -2.8278  -30.0150  -29.0139 H   0  0  0  0  0  0  0  0  0  0  0  0  # atno 3525 bound_to 925 
  -11.0914  -22.7799  -31.1785 H   0  0  0  0  0  0  0  0  0  0  0  0  # atno 3677 bound_to 1070
  -10.7642  -37.4359  -33.0753 H   0  0  0  0  0  0  0  0  0  0  0  0  # atno 3781 bound_to 1176
  -15.8697  -27.4375  -37.4820 H   0  0  0  0  0  0  0  0  0  0  0  0  # atno 3847 bound_to 1247
  -13.3848  -24.3312  -40.4806 H   0  0  0  0  0  0  0  0  0  0  0  0  # atno 4507 bound_to 1931
   -1.6808  -32.3428  -36.9099 H   0  0  0  0  0  0  0  0  0  0  0  0  # atno 4531 bound_to 1957
   -2.2127  -30.1484  -30.5146 LP  0  0  0  0  0  0  0  0  0  0  0  0  # atno 5201 bound_to 925 
   -3.7031  -29.5189  -30.2929 LP  0  0  0  0  0  0  0  0  0  0  0  0  # atno 5202 bound_to 925 
   -9.9467  -36.4955  -34.1219 LP  0  0  0  0  0  0  0  0  0  0  0  0  # atno 5205 bound_to 1176
   -9.3946  -36.6977  -32.5985 LP  0  0  0  0  0  0  0  0  0  0  0  0  # atno 5206 bound_to 1176
   -1.7554  -33.9684  -36.9214 LP  0  0  0  0  0  0  0  0  0  0  0  0  # atno 5213 bound_to 1957
   -3.1038  -33.0883  -36.6498 LP  0  0  0  0  0  0  0  0  0  0  0  0  # atno 5214 bound_to 1957
  -14.3603  -27.8747  -37.9045 LP  0  0  0  0  0  0  0  0  0  0  0  0  # atno 5227 bound_to 1247
  -15.3296  -28.9294  -37.1205 LP  0  0  0  0  0  0  0  0  0  0  0  0  # atno 5228 bound_to 1247
  -12.4287  -24.0385  -39.1968 LP  0  0  0  0  0  0  0  0  0  0  0  0  # atno 5245 bound_to 1931
  -13.3789  -25.3662  -39.2249 LP  0  0  0  0  0  0  0  0  0  0  0  0  # atno 5246 bound_to 1931
  -12.4307  -22.4292  -30.3233 LP  0  0  0  0  0  0  0  0  0  0  0  0  # atno 5265 bound_to 1070
  -12.3379  -23.8259  -31.1643 LP  0  0  0  0  0  0  0  0  0  0  0  0  # atno 5266 bound_to 1070

$$$$
EZ_19|Lisa_paper2_min|sdf|7|dock9
  -GOLD-  10202014343D 1   1.00000     0.00000

 45 48  0  0  0  0  0  0  0  0  1 V2000
   -4.5232  -31.1165  -35.5056 C   0  0  0  0  0  0  0  0  0  0  0  0
   -5.0574  -32.4070  -35.4938 C   0  0  0  0  0  0  0  0  0  0  0  0
   -5.3147  -30.0051  -35.1896 C   0  0  0  0  0  0  0  0  0  0  0  0
   -6.3982  -32.6346  -35.1665 C   0  0  0  0  0  0  0  0  0  0  0  0
  -11.3160  -25.3039  -35.6697 C   0  0  0  0  0  0  0  0  0  0  0  0
  -12.8096  -27.1888  -35.9020 C   0  0  0  0  0  0  0  0  0  0  0  0
  -16.6716  -23.2439  -39.7374 C   0  0  0  0  0  0  0  0  0  0  0  0
  -10.4896  -26.0611  -34.8395 C   0  0  0  0  0  0  0  0  0  0  0  0
  -11.9831  -27.9459  -35.0719 C   0  0  0  0  0  0  0  0  0  0  0  0
  -17.9716  -23.0050  -40.1829 C   0  0  0  0  0  0  0  0  0  0  0  0
  -17.5422  -24.5240  -37.8827 C   0  0  0  0  0  0  0  0  0  0  0  0
   -6.6640  -30.2152  -34.8586 C   0  0  0  0  0  0  0  0  0  0  0  0
   -7.1676  -31.5130  -34.8553 C   0  0  0  0  0  0  0  0  0  0  0  0
  -12.4761  -25.8677  -36.2009 C   0  0  0  0  0  0  0  0  0  0  0  0
  -16.4569  -24.0034  -38.5873 C   0  0  0  0  0  0  0  0  0  0  0  0
  -10.8230  -27.3821  -34.5406 C   0  0  0  0  0  0  0  0  0  0  0  0
  -19.0570  -23.5257  -39.4783 C   0  0  0  0  0  0  0  0  0  0  0  0
  -18.8424  -24.2852  -38.3281 C   0  0  0  0  0  0  0  0  0  0  0  0
   -8.7183  -30.0341  -34.3050 C   0  0  0  0  0  0  0  0  0  0  0  0
  -14.7065  -25.1982  -37.1988 C   0  0  0  0  0  0  0  0  0  0  0  0
  -10.0502  -29.5404  -33.9080 C   0  0  0  0  0  0  0  0  0  0  0  0
   -7.6416  -29.3102  -34.5142 N   0  0  0  0  0  0  0  0  0  0  0  0
   -8.4834  -31.3671  -34.4977 N   0  0  0  0  0  0  0  0  0  0  0  0
  -13.3030  -25.1104  -37.0312 N   0  0  0  0  0  0  0  0  0  0  0  0
  -15.1380  -24.2458  -38.1361 N   0  0  0  0  0  0  0  0  0  0  0  0
  -15.4322  -25.9921  -36.6086 O   0  0  0  0  0  0  0  0  0  0  0  0
  -10.0127  -28.1246  -33.7267 O   0  0  0  0  0  0  0  0  0  0  0  0
  -20.6432  -23.1923  -40.0791 Cl  0  0  0  0  0  0  0  0  0  0  0  0
  -20.1460  -24.9551  -37.4112 Cl  0  0  0  0  0  0  0  0  0  0  0  0
   -3.4771  -30.9717  -35.7636 H   0  0  0  0  0  0  0  0  0  0  0  0
   -4.4197  -33.2512  -35.7448 H   0  0  0  0  0  0  0  0  0  0  0  0
   -4.8894  -29.0067  -35.2009 H   0  0  0  0  0  0  0  0  0  0  0  0
   -6.8142  -33.6355  -35.1558 H   0  0  0  0  0  0  0  0  0  0  0  0
  -11.0464  -24.2755  -35.8961 H   0  0  0  0  0  0  0  0  0  0  0  0
  -13.7111  -27.6385  -36.3101 H   0  0  0  0  0  0  0  0  0  0  0  0
  -15.8328  -22.8348  -40.2948 H   0  0  0  0  0  0  0  0  0  0  0  0
   -9.5872  -25.6164  -34.4289 H   0  0  0  0  0  0  0  0  0  0  0  0
  -12.2482  -28.9744  -34.8426 H   0  0  0  0  0  0  0  0  0  0  0  0
  -18.1201  -22.4123  -41.0820 H   0  0  0  0  0  0  0  0  0  0  0  0
  -17.3685  -25.1146  -36.9853 H   0  0  0  0  0  0  0  0  0  0  0  0
  -10.8216  -29.7649  -34.6664 H   0  0  0  0  0  0  0  0  0  0  0  0
  -10.3954  -29.9966  -32.9630 H   0  0  0  0  0  0  0  0  0  0  0  0
   -9.1572  -32.1144  -34.3949 H   0  0  0  0  0  0  0  0  0  0  0  0
  -12.8317  -24.3951  -37.5951 H   0  0  0  0  0  0  0  0  0  0  0  0
  -14.4189  -23.6545  -38.5451 H   0  0  0  0  0  0  0  0  0  0  0  0
  1  2  2  0  0  0  0
  1  3  1  0  0  0  0
  2  4  1  0  0  0  0
  3 12  2  0  0  0  0
  4 13  2  0  0  0  0
  5  8  1  0  0  0  0
  5 14  2  0  0  0  0
  6  9  2  0  0  0  0
  6 14  1  0  0  0  0
  7 10  1  0  0  0  0
  7 15  2  0  0  0  0
  8 16  2  0  0  0  0
  9 16  1  0  0  0  0
 10 17  2  0  0  0  0
 11 15  1  0  0  0  0
 11 18  2  0  0  0  0
 12 13  1  0  0  0  0
 12 22  1  0  0  0  0
 13 23  1  0  0  0  0
 14 24  1  0  0  0  0
 15 25  1  0  0  0  0
 16 27  1  0  0  0  0
 17 18  1  0  0  0  0
 17 28  1  0  0  0  0
 18 29  1  0  0  0  0
 19 21  1  0  0  0  0
 19 22  2  0  0  0  0
 19 23  1  0  0  0  0
 20 24  1  0  0  0  0
 20 25  1  0  0  0  0
 20 26  2  0  0  0  0
 21 27  1  0  0  0  0
  1 30  1  0  0  0  0
  2 31  1  0  0  0  0
  3 32  1  0  0  0  0
  4 33  1  0  0  0  0
  5 34  1  0  0  0  0
  6 35  1  0  0  0  0
  7 36  1  0  0  0  0
  8 37  1  0  0  0  0
  9 38  1  0  0  0  0
 10 39  1  0  0  0  0
 11 40  1  0  0  0  0
 21 41  1  0  0  0  0
 21 42  1  0  0  0  0
 23 43  1  0  0  0  0
 24 44  1  0  0  0  0
 25 45  1  0  0  0  0
M  END
> <Name>
EZ_19

> <SourceTag>
EZ_19

> <Activity_sEH>
10.5

> <Activity_FLAP>
0.6

> <Gold.Version>
5.2

> <Gold.Id.Protein>
6HGV|6HGV_protein|mol2

> <Gold.PLP.Fitness>
87.4100

> <Gold.PLP.PLP>
-84.0480

> <Gold.PLP.part.hbond>
-8.0378

> <Gold.PLP.part.metal>
0.0000

> <Gold.PLP.part.buried>
3.4742

> <Gold.PLP.part.nonpolar>
-79.5078

> <Gold.PLP.part.repulsive>
0.0715

> <Gold.PLP.ligand.clash>
0.0000

> <Gold.PLP.ligand.torsion>
0.9840

> <Gold.PLP.Chemscore.Hbond>
1.1941

> <Gold.PLP.Chemscore.CHOScore>
0.0000

> <Gold.PLP.Chemscore.Metal>
0.0000

> <Gold.Chemscore.Hbonds>
donor molecule, donor type, donor heavy atom, donor atom, acceptor molecule, acceptor atom, score
      L1  H    24    44       P1  1931  0.49
      P1  H  1247  3847       L1    26  0.70

> <Gold.PLP.Chemscore.Internal.Correction>
0.3577

> <Gold.Protein.RotatedTorsions>
[ 3525  925  924  922 ] final  -35.54 input   59.99 | X-H torsion
[ 3781 1176 1175 1172 ] final  -16.18 input   60.00 | X-H torsion
[ 4531 1957 1955 1953 ] final  121.70 input   60.00 | X-H torsion
[ 3847 1247 1246 1244 ] final  -94.66 input   60.00 | X-H torsion
[ 4507 1931 1930 1928 ] final -149.84 input   60.00 | X-H torsion
[ 3677 1070 1069 1066 ] final   91.69 input   60.00 | X-H torsion

> <Gold.Protein.ActiveResidues>
 GLY266  PHE267  PRO268  GLU269  MET310  HIS334  ASP335  TRP336  GLY337  GLY338 
 MET339  LEU340  TRP342  TYR343  LEU358  ASN359  THR360  PRO361  ILE363  ALA365 
 MET369  SER370  PRO371  LEU372  GLU373  SER374  ILE375  LYS376  ALA377  ASN378 
 VAL380  PHE381  ASP382  TYR383  GLN384  PHE387  GLN388  LEU397  SER407  LEU408 
 PHE409  ARG410  LEU417  MET419  LEU428  PHE429  PHE459  TRP465  TYR466  ASN468 
 MET469  GLU470  ASN472  TRP473  ALA476  ASP496  PHE497  VAL498  LEU499  MET503 
 HIS524  TRP525 

> <Gold.Protein.RotatedAtoms>
   -3.7721  -29.5193  -29.9322 H   0  0  0  0  0  0  0  0  0  0  0  0  # atno 3525 bound_to 925 
  -11.9931  -22.2083  -30.4096 H   0  0  0  0  0  0  0  0  0  0  0  0  # atno 3677 bound_to 1070
  -10.7102  -37.0999  -33.8762 H   0  0  0  0  0  0  0  0  0  0  0  0  # atno 3781 bound_to 1176
  -15.8529  -27.4199  -37.4953 H   0  0  0  0  0  0  0  0  0  0  0  0  # atno 3847 bound_to 1247
  -13.1993  -24.1066  -40.4336 H   0  0  0  0  0  0  0  0  0  0  0  0  # atno 4507 bound_to 1931
   -2.3519  -34.0514  -36.8118 H   0  0  0  0  0  0  0  0  0  0  0  0  # atno 4531 bound_to 1957
   -2.5049  -30.1479  -29.1277 LP  0  0  0  0  0  0  0  0  0  0  0  0  # atno 5201 bound_to 925 
   -2.4599  -30.0186  -30.7550 LP  0  0  0  0  0  0  0  0  0  0  0  0  # atno 5202 bound_to 925 
   -9.3321  -36.3086  -33.5260 LP  0  0  0  0  0  0  0  0  0  0  0  0  # atno 5205 bound_to 1176
  -10.0637  -37.2230  -32.3879 LP  0  0  0  0  0  0  0  0  0  0  0  0  # atno 5206 bound_to 1176
   -2.8795  -32.5173  -36.6826 LP  0  0  0  0  0  0  0  0  0  0  0  0  # atno 5213 bound_to 1957
   -1.3038  -32.8190  -36.9874 LP  0  0  0  0  0  0  0  0  0  0  0  0  # atno 5214 bound_to 1957
  -14.3513  -27.9004  -37.8981 LP  0  0  0  0  0  0  0  0  0  0  0  0  # atno 5227 bound_to 1247
  -15.3555  -28.9215  -37.1134 LP  0  0  0  0  0  0  0  0  0  0  0  0  # atno 5228 bound_to 1247
  -12.4586  -24.2518  -38.9920 LP  0  0  0  0  0  0  0  0  0  0  0  0  # atno 5245 bound_to 1931
  -13.5359  -25.3791  -39.4769 LP  0  0  0  0  0  0  0  0  0  0  0  0  # atno 5246 bound_to 1931
  -12.6803  -23.6089  -30.8724 LP  0  0  0  0  0  0  0  0  0  0  0  0  # atno 5265 bound_to 1070
  -11.1804  -23.2220  -31.3894 LP  0  0  0  0  0  0  0  0  0  0  0  0  # atno 5266 bound_to 1070

$$$$
EZ_19|Lisa_paper2_min|sdf|7|dock2
  -GOLD-  10202014343D 1   1.00000     0.00000

 45 48  0  0  0  0  0  0  0  0  1 V2000
   -5.1069  -32.2112  -35.4990 C   0  0  0  0  0  0  0  0  0  0  0  0
   -4.6166  -30.9034  -35.5046 C   0  0  0  0  0  0  0  0  0  0  0  0
   -6.4285  -32.4846  -35.1246 C   0  0  0  0  0  0  0  0  0  0  0  0
   -5.4259  -29.8232  -35.1377 C   0  0  0  0  0  0  0  0  0  0  0  0
  -11.3733  -25.5229  -35.7896 C   0  0  0  0  0  0  0  0  0  0  0  0
  -12.9462  -27.3564  -35.7465 C   0  0  0  0  0  0  0  0  0  0  0  0
  -16.8535  -23.3830  -39.5951 C   0  0  0  0  0  0  0  0  0  0  0  0
  -10.5355  -26.2211  -34.9201 C   0  0  0  0  0  0  0  0  0  0  0  0
  -12.1083  -28.0546  -34.8771 C   0  0  0  0  0  0  0  0  0  0  0  0
  -18.1663  -23.0980  -39.9704 C   0  0  0  0  0  0  0  0  0  0  0  0
  -17.6689  -24.8322  -37.8425 C   0  0  0  0  0  0  0  0  0  0  0  0
   -7.2557  -31.4114  -34.7529 C   0  0  0  0  0  0  0  0  0  0  0  0
   -6.7386  -30.1191  -34.7685 C   0  0  0  0  0  0  0  0  0  0  0  0
  -12.5787  -26.0905  -36.2028 C   0  0  0  0  0  0  0  0  0  0  0  0
  -16.6048  -24.2502  -38.5312 C   0  0  0  0  0  0  0  0  0  0  0  0
  -10.9028  -27.4870  -34.4639 C   0  0  0  0  0  0  0  0  0  0  0  0
  -19.2305  -23.6802  -39.2817 C   0  0  0  0  0  0  0  0  0  0  0  0
  -18.9818  -24.5473  -38.2177 C   0  0  0  0  0  0  0  0  0  0  0  0
   -8.8547  -30.1438  -34.1236 C   0  0  0  0  0  0  0  0  0  0  0  0
  -14.8325  -25.3797  -37.1162 C   0  0  0  0  0  0  0  0  0  0  0  0
  -10.1467  -29.5970  -33.6688 C   0  0  0  0  0  0  0  0  0  0  0  0
   -8.5714  -31.4069  -34.3498 N   0  0  0  0  0  0  0  0  0  0  0  0
   -7.7830  -29.3290  -34.3618 N   0  0  0  0  0  0  0  0  0  0  0  0
  -13.4169  -25.3921  -37.0724 N   0  0  0  0  0  0  0  0  0  0  0  0
  -15.2729  -24.5393  -38.1512 N   0  0  0  0  0  0  0  0  0  0  0  0
  -15.5603  -26.0128  -36.3581 O   0  0  0  0  0  0  0  0  0  0  0  0
  -10.0814  -28.1717  -33.6114 O   0  0  0  0  0  0  0  0  0  0  0  0
  -20.8340  -23.2851  -39.7924 Cl  0  0  0  0  0  0  0  0  0  0  0  0
  -20.2578  -25.2976  -37.3245 Cl  0  0  0  0  0  0  0  0  0  0  0  0
   -4.4535  -33.0299  -35.7898 H   0  0  0  0  0  0  0  0  0  0  0  0
   -3.5857  -30.7208  -35.7985 H   0  0  0  0  0  0  0  0  0  0  0  0
   -6.7997  -33.5044  -35.1246 H   0  0  0  0  0  0  0  0  0  0  0  0
   -5.0475  -28.8074  -35.1426 H   0  0  0  0  0  0  0  0  0  0  0  0
  -11.0770  -24.5371  -36.1389 H   0  0  0  0  0  0  0  0  0  0  0  0
  -13.8831  -27.8085  -36.0617 H   0  0  0  0  0  0  0  0  0  0  0  0
  -16.0315  -22.9253  -40.1395 H   0  0  0  0  0  0  0  0  0  0  0  0
   -9.5978  -25.7738  -34.6019 H   0  0  0  0  0  0  0  0  0  0  0  0
  -12.3999  -29.0404  -34.5250 H   0  0  0  0  0  0  0  0  0  0  0  0
  -18.3414  -22.4213  -40.8029 H   0  0  0  0  0  0  0  0  0  0  0  0
  -17.4686  -25.5068  -37.0124 H   0  0  0  0  0  0  0  0  0  0  0  0
  -10.9771  -29.8715  -34.3439 H   0  0  0  0  0  0  0  0  0  0  0  0
  -10.4217  -29.9668  -32.6649 H   0  0  0  0  0  0  0  0  0  0  0  0
   -7.7615  -28.3231  -34.2583 H   0  0  0  0  0  0  0  0  0  0  0  0
  -12.9454  -24.8104  -37.7730 H   0  0  0  0  0  0  0  0  0  0  0  0
  -14.5507  -24.0791  -38.6995 H   0  0  0  0  0  0  0  0  0  0  0  0
  1  2  2  0  0  0  0
  1  3  1  0  0  0  0
  2  4  1  0  0  0  0
  3 12  2  0  0  0  0
  4 13  2  0  0  0  0
  5  8  1  0  0  0  0
  5 14  2  0  0  0  0
  6  9  2  0  0  0  0
  6 14  1  0  0  0  0
  7 10  1  0  0  0  0
  7 15  2  0  0  0  0
  8 16  2  0  0  0  0
  9 16  1  0  0  0  0
 10 17  2  0  0  0  0
 11 15  1  0  0  0  0
 11 18  2  0  0  0  0
 12 13  1  0  0  0  0
 12 22  1  0  0  0  0
 13 23  1  0  0  0  0
 14 24  1  0  0  0  0
 15 25  1  0  0  0  0
 16 27  1  0  0  0  0
 17 18  1  0  0  0  0
 17 28  1  0  0  0  0
 18 29  1  0  0  0  0
 19 21  1  0  0  0  0
 19 22  2  0  0  0  0
 19 23  1  0  0  0  0
 20 24  1  0  0  0  0
 20 25  1  0  0  0  0
 20 26  2  0  0  0  0
 21 27  1  0  0  0  0
  1 30  1  0  0  0  0
  2 31  1  0  0  0  0
  3 32  1  0  0  0  0
  4 33  1  0  0  0  0
  5 34  1  0  0  0  0
  6 35  1  0  0  0  0
  7 36  1  0  0  0  0
  8 37  1  0  0  0  0
  9 38  1  0  0  0  0
 10 39  1  0  0  0  0
 11 40  1  0  0  0  0
 21 41  1  0  0  0  0
 21 42  1  0  0  0  0
 23 43  1  0  0  0  0
 24 44  1  0  0  0  0
 25 45  1  0  0  0  0
M  END
> <Name>
EZ_19

> <SourceTag>
EZ_19

> <Activity_sEH>
10.5

> <Activity_FLAP>
0.6

> <Gold.Version>
5.2

> <Gold.Id.Protein>
6HGV|6HGV_protein|mol2

> <Gold.PLP.Fitness>
85.3979

> <Gold.PLP.PLP>
-82.1516

> <Gold.PLP.part.hbond>
-8.0000

> <Gold.PLP.part.metal>
0.0000

> <Gold.PLP.part.buried>
2.7057

> <Gold.PLP.part.nonpolar>
-77.4637

> <Gold.PLP.part.repulsive>
0.0832

> <Gold.PLP.ligand.clash>
0.0000

> <Gold.PLP.ligand.torsion>
0.9945

> <Gold.PLP.Chemscore.Hbond>
1.1626

> <Gold.PLP.Chemscore.CHOScore>
0.0000

> <Gold.PLP.Chemscore.Metal>
0.0000

> <Gold.Chemscore.Hbonds>
donor molecule, donor type, donor heavy atom, donor atom, acceptor molecule, acceptor atom, score
      L1  H    24    44       P1  1931  0.80
      P1  H  1247  3847       L1    26  0.36

> <Gold.PLP.Chemscore.Internal.Correction>
0.3577

> <Gold.Protein.RotatedTorsions>
[ 3525  925  924  922 ] final -118.69 input   59.99 | X-H torsion
[ 3781 1176 1175 1172 ] final  167.89 input   60.00 | X-H torsion
[ 4531 1957 1955 1953 ] final  104.68 input   60.00 | X-H torsion
[ 3847 1247 1246 1244 ] final  -63.90 input   60.00 | X-H torsion
[ 4507 1931 1930 1928 ] final -152.60 input   60.00 | X-H torsion
[ 3677 1070 1069 1066 ] final  -35.34 input   60.00 | X-H torsion

> <Gold.Protein.ActiveResidues>
 GLY266  PHE267  PRO268  GLU269  MET310  HIS334  ASP335  TRP336  GLY337  GLY338 
 MET339  LEU340  TRP342  TYR343  LEU358  ASN359  THR360  PRO361  ILE363  ALA365 
 MET369  SER370  PRO371  LEU372  GLU373  SER374  ILE375  LYS376  ALA377  ASN378 
 VAL380  PHE381  ASP382  TYR383  GLN384  PHE387  GLN388  LEU397  SER407  LEU408 
 PHE409  ARG410  LEU417  MET419  LEU428  PHE429  PHE459  TRP465  TYR466  ASN468 
 MET469  GLU470  ASN472  TRP473  ALA476  ASP496  PHE497  VAL498  LEU499  MET503 
 HIS524  TRP525 

> <Gold.Protein.RotatedAtoms>
   -3.0417  -29.9220  -29.0112 H   0  0  0  0  0  0  0  0  0  0  0  0  # atno 3525 bound_to 925 
  -12.6117  -23.6730  -30.9396 H   0  0  0  0  0  0  0  0  0  0  0  0  # atno 3677 bound_to 1070
   -9.3338  -36.6214  -32.7022 H   0  0  0  0  0  0  0  0  0  0  0  0  # atno 3781 bound_to 1176
  -16.0539  -27.8122  -37.2664 H   0  0  0  0  0  0  0  0  0  0  0  0  # atno 3847 bound_to 1247
  -13.1695  -24.0761  -40.4194 H   0  0  0  0  0  0  0  0  0  0  0  0  # atno 4507 bound_to 1931
   -2.6088  -33.9605  -36.7614 H   0  0  0  0  0  0  0  0  0  0  0  0  # atno 4531 bound_to 1957
   -2.1096  -30.2118  -30.3132 LP  0  0  0  0  0  0  0  0  0  0  0  0  # atno 5201 bound_to 925 
   -3.5908  -29.5492  -30.4970 LP  0  0  0  0  0  0  0  0  0  0  0  0  # atno 5202 bound_to 925 
  -10.7141  -37.4491  -32.9426 LP  0  0  0  0  0  0  0  0  0  0  0  0  # atno 5205 bound_to 1176
  -10.0678  -36.5644  -34.1535 LP  0  0  0  0  0  0  0  0  0  0  0  0  # atno 5206 bound_to 1176
   -2.6715  -32.3349  -36.7190 LP  0  0  0  0  0  0  0  0  0  0  0  0  # atno 5213 bound_to 1957
   -1.2531  -33.0929  -37.0018 LP  0  0  0  0  0  0  0  0  0  0  0  0  # atno 5214 bound_to 1957
  -14.6171  -27.4805  -37.9545 LP  0  0  0  0  0  0  0  0  0  0  0  0  # atno 5227 bound_to 1247
  -14.8873  -28.9464  -37.2877 LP  0  0  0  0  0  0  0  0  0  0  0  0  # atno 5228 bound_to 1247
  -12.4685  -24.2876  -38.9661 LP  0  0  0  0  0  0  0  0  0  0  0  0  # atno 5245 bound_to 1931
  -13.5560  -25.3740  -39.5172 LP  0  0  0  0  0  0  0  0  0  0  0  0  # atno 5246 bound_to 1931
  -11.1377  -23.1208  -31.3528 LP  0  0  0  0  0  0  0  0  0  0  0  0  # atno 5265 bound_to 1070
  -12.1001  -22.2350  -30.3752 LP  0  0  0  0  0  0  0  0  0  0  0  0  # atno 5266 bound_to 1070

$$$$
EZ_19|Lisa_paper2_min|sdf|7|dock3
  -GOLD-  10202014343D 1   1.00000     0.00000

 45 48  0  0  0  0  0  0  0  0  1 V2000
   -3.5380  -32.3434  -33.6426 C   0  0  0  0  0  0  0  0  0  0  0  0
   -3.1248  -31.1087  -33.1369 C   0  0  0  0  0  0  0  0  0  0  0  0
   -4.7556  -32.4737  -34.3223 C   0  0  0  0  0  0  0  0  0  0  0  0
   -3.9102  -29.9616  -33.2911 C   0  0  0  0  0  0  0  0  0  0  0  0
  -11.6827  -27.0493  -36.3192 C   0  0  0  0  0  0  0  0  0  0  0  0
  -11.6835  -26.1904  -34.0610 C   0  0  0  0  0  0  0  0  0  0  0  0
  -17.8413  -24.7000  -37.0319 C   0  0  0  0  0  0  0  0  0  0  0  0
  -10.4564  -27.6703  -36.0827 C   0  0  0  0  0  0  0  0  0  0  0  0
  -10.4572  -26.8115  -33.8244 C   0  0  0  0  0  0  0  0  0  0  0  0
  -18.8685  -24.4582  -37.9440 C   0  0  0  0  0  0  0  0  0  0  0  0
  -16.2128  -24.4474  -38.7986 C   0  0  0  0  0  0  0  0  0  0  0  0
   -5.5575  -31.3316  -34.4863 C   0  0  0  0  0  0  0  0  0  0  0  0
   -5.1188  -30.1149  -33.9713 C   0  0  0  0  0  0  0  0  0  0  0  0
  -12.2963  -26.3092  -35.3084 C   0  0  0  0  0  0  0  0  0  0  0  0
  -16.5135  -24.6946  -37.4592 C   0  0  0  0  0  0  0  0  0  0  0  0
   -9.8436  -27.5515  -34.8352 C   0  0  0  0  0  0  0  0  0  0  0  0
  -18.5678  -24.2109  -39.2835 C   0  0  0  0  0  0  0  0  0  0  0  0
  -17.2400  -24.2056  -39.7109 C   0  0  0  0  0  0  0  0  0  0  0  0
   -7.0815  -29.9173  -34.9729 C   0  0  0  0  0  0  0  0  0  0  0  0
  -14.3038  -25.6945  -36.7264 C   0  0  0  0  0  0  0  0  0  0  0  0
   -8.2971  -29.2440  -35.4671 C   0  0  0  0  0  0  0  0  0  0  0  0
   -6.7783  -31.1892  -35.1050 N   0  0  0  0  0  0  0  0  0  0  0  0
   -6.1130  -29.2285  -34.2972 N   0  0  0  0  0  0  0  0  0  0  0  0
  -13.5229  -25.6879  -35.5449 N   0  0  0  0  0  0  0  0  0  0  0  0
  -15.4718  -24.9394  -36.5335 N   0  0  0  0  0  0  0  0  0  0  0  0
  -13.9983  -26.2764  -37.7624 O   0  0  0  0  0  0  0  0  0  0  0  0
   -8.6412  -28.1604  -34.6032 O   0  0  0  0  0  0  0  0  0  0  0  0
  -19.8847  -23.9215  -40.3653 Cl  0  0  0  0  0  0  0  0  0  0  0  0
  -16.8044  -23.9080  -41.3572 Cl  0  0  0  0  0  0  0  0  0  0  0  0
   -2.9053  -33.2170  -33.5073 H   0  0  0  0  0  0  0  0  0  0  0  0
   -2.1751  -31.0374  -32.6121 H   0  0  0  0  0  0  0  0  0  0  0  0
   -5.0669  -33.4375  -34.7121 H   0  0  0  0  0  0  0  0  0  0  0  0
   -3.5906  -29.0024  -32.9003 H   0  0  0  0  0  0  0  0  0  0  0  0
  -12.1513  -27.1486  -37.2950 H   0  0  0  0  0  0  0  0  0  0  0  0
  -12.1523  -25.6162  -33.2659 H   0  0  0  0  0  0  0  0  0  0  0  0
  -18.0864  -24.8900  -35.9900 H   0  0  0  0  0  0  0  0  0  0  0  0
   -9.9835  -28.2455  -36.8739 H   0  0  0  0  0  0  0  0  0  0  0  0
   -9.9847  -26.7152  -32.8507 H   0  0  0  0  0  0  0  0  0  0  0  0
  -19.8973  -24.4647  -37.5931 H   0  0  0  0  0  0  0  0  0  0  0  0
  -15.1751  -24.4459  -39.1262 H   0  0  0  0  0  0  0  0  0  0  0  0
   -8.1639  -28.8367  -36.4854 H   0  0  0  0  0  0  0  0  0  0  0  0
   -9.1606  -29.9314  -35.5132 H   0  0  0  0  0  0  0  0  0  0  0  0
   -6.1244  -28.2415  -34.0764 H   0  0  0  0  0  0  0  0  0  0  0  0
  -13.9105  -25.1555  -34.7588 H   0  0  0  0  0  0  0  0  0  0  0  0
  -15.5895  -24.5129  -35.6179 H   0  0  0  0  0  0  0  0  0  0  0  0
  1  2  2  0  0  0  0
  1  3  1  0  0  0  0
  2  4  1  0  0  0  0
  3 12  2  0  0  0  0
  4 13  2  0  0  0  0
  5  8  1  0  0  0  0
  5 14  2  0  0  0  0
  6  9  2  0  0  0  0
  6 14  1  0  0  0  0
  7 10  1  0  0  0  0
  7 15  2  0  0  0  0
  8 16  2  0  0  0  0
  9 16  1  0  0  0  0
 10 17  2  0  0  0  0
 11 15  1  0  0  0  0
 11 18  2  0  0  0  0
 12 13  1  0  0  0  0
 12 22  1  0  0  0  0
 13 23  1  0  0  0  0
 14 24  1  0  0  0  0
 15 25  1  0  0  0  0
 16 27  1  0  0  0  0
 17 18  1  0  0  0  0
 17 28  1  0  0  0  0
 18 29  1  0  0  0  0
 19 21  1  0  0  0  0
 19 22  2  0  0  0  0
 19 23  1  0  0  0  0
 20 24  1  0  0  0  0
 20 25  1  0  0  0  0
 20 26  2  0  0  0  0
 21 27  1  0  0  0  0
  1 30  1  0  0  0  0
  2 31  1  0  0  0  0
  3 32  1  0  0  0  0
  4 33  1  0  0  0  0
  5 34  1  0  0  0  0
  6 35  1  0  0  0  0
  7 36  1  0  0  0  0
  8 37  1  0  0  0  0
  9 38  1  0  0  0  0
 10 39  1  0  0  0  0
 11 40  1  0  0  0  0
 21 41  1  0  0  0  0
 21 42  1  0  0  0  0
 23 43  1  0  0  0  0
 24 44  1  0  0  0  0
 25 45  1  0  0  0  0
M  END
> <Name>
EZ_19

> <SourceTag>
EZ_19

> <Activity_sEH>
10.5

> <Activity_FLAP>
0.6

> <Gold.Version>
5.2

> <Gold.Id.Protein>
6HGV|6HGV_protein|mol2

> <Gold.PLP.Fitness>
84.4908

> <Gold.PLP.PLP>
-76.8803

> <Gold.PLP.part.hbond>
-6.1101

> <Gold.PLP.part.metal>
0.0000

> <Gold.PLP.part.buried>
3.2623

> <Gold.PLP.part.nonpolar>
-75.8662

> <Gold.PLP.part.repulsive>
0.0658

> <Gold.PLP.ligand.clash>
0.2921

> <Gold.PLP.ligand.torsion>
0.9965

> <Gold.PLP.Chemscore.Hbond>
2.5573

> <Gold.PLP.Chemscore.CHOScore>
0.0000

> <Gold.PLP.Chemscore.Metal>
0.0000

> <Gold.Chemscore.Hbonds>
donor molecule, donor type, donor heavy atom, donor atom, acceptor molecule, acceptor atom, score
      L1  H    24    44       P1   853  0.43
      L1  H    25    45       P1   853  0.43
      P1  H  1247  3847       L1    26  0.71
      P1  H  1931  4507       L1    26  0.98

> <Gold.PLP.Chemscore.Internal.Correction>
0.3577

> <Gold.Protein.RotatedTorsions>
[ 3525  925  924  922 ] final  178.92 input   59.99 | X-H torsion
[ 3781 1176 1175 1172 ] final  116.51 input   60.00 | X-H torsion
[ 4531 1957 1955 1953 ] final   -6.01 input   60.00 | X-H torsion
[ 3847 1247 1246 1244 ] final  169.79 input   60.00 | X-H torsion
[ 4507 1931 1930 1928 ] final   -9.54 input   60.00 | X-H torsion
[ 3677 1070 1069 1066 ] final  -24.75 input   60.00 | X-H torsion

> <Gold.Protein.ActiveResidues>
 GLY266  PHE267  PRO268  GLU269  MET310  HIS334  ASP335  TRP336  GLY337  GLY338 
 MET339  LEU340  TRP342  TYR343  LEU358  ASN359  THR360  PRO361  ILE363  ALA365 
 MET369  SER370  PRO371  LEU372  GLU373  SER374  ILE375  LYS376  ALA377  ASN378 
 VAL380  PHE381  ASP382  TYR383  GLN384  PHE387  GLN388  LEU397  SER407  LEU408 
 PHE409  ARG410  LEU417  MET419  LEU428  PHE429  PHE459  TRP465  TYR466  ASN468 
 MET469  GLU470  ASN472  TRP473  ALA476  ASP496  PHE497  VAL498  LEU499  MET503 
 HIS524  TRP525 

> <Gold.Protein.RotatedAtoms>
   -2.2206  -30.2430  -29.4152 H   0  0  0  0  0  0  0  0  0  0  0  0  # atno 3525 bound_to 925 
  -12.7018  -23.5684  -30.8357 H   0  0  0  0  0  0  0  0  0  0  0  0  # atno 3677 bound_to 1070
   -9.8872  -37.1144  -32.3715 H   0  0  0  0  0  0  0  0  0  0  0  0  # atno 3781 bound_to 1176
  -14.5515  -27.5608  -37.9523 H   0  0  0  0  0  0  0  0  0  0  0  0  # atno 3847 bound_to 1247
  -13.3540  -25.3551  -39.2012 H   0  0  0  0  0  0  0  0  0  0  0  0  # atno 4507 bound_to 1931
   -2.7881  -32.4317  -36.7009 H   0  0  0  0  0  0  0  0  0  0  0  0  # atno 4531 bound_to 1957
   -2.8215  -29.8500  -30.8755 LP  0  0  0  0  0  0  0  0  0  0  0  0  # atno 5201 bound_to 925 
   -3.7058  -29.5877  -29.5279 LP  0  0  0  0  0  0  0  0  0  0  0  0  # atno 5202 bound_to 925 
  -10.7924  -37.2101  -33.7203 LP  0  0  0  0  0  0  0  0  0  0  0  0  # atno 5205 bound_to 1176
   -9.4321  -36.3068  -33.7089 LP  0  0  0  0  0  0  0  0  0  0  0  0  # atno 5206 bound_to 1176
   -1.2709  -32.9411  -36.9957 LP  0  0  0  0  0  0  0  0  0  0  0  0  # atno 5213 bound_to 1957
   -2.4732  -34.0261  -36.7859 LP  0  0  0  0  0  0  0  0  0  0  0  0  # atno 5214 bound_to 1957
  -14.9807  -28.9620  -37.2450 LP  0  0  0  0  0  0  0  0  0  0  0  0  # atno 5227 bound_to 1247
  -16.0368  -27.7180  -37.3064 LP  0  0  0  0  0  0  0  0  0  0  0  0  # atno 5228 bound_to 1247
  -13.4093  -24.3574  -40.4855 LP  0  0  0  0  0  0  0  0  0  0  0  0  # atno 5245 bound_to 1931
  -12.4294  -24.0162  -39.2246 LP  0  0  0  0  0  0  0  0  0  0  0  0  # atno 5246 bound_to 1931
  -11.2065  -23.2720  -31.4051 LP  0  0  0  0  0  0  0  0  0  0  0  0  # atno 5265 bound_to 1070
  -11.9405  -22.1892  -30.4276 LP  0  0  0  0  0  0  0  0  0  0  0  0  # atno 5266 bound_to 1070

$$$$
EZ_19|Lisa_paper2_min|sdf|7|dock4
  -GOLD-  10202014343D 1   1.00000     0.00000

 45 48  0  0  0  0  0  0  0  0  1 V2000
   -6.4777  -33.6835  -35.7042 C   0  0  0  0  0  0  0  0  0  0  0  0
   -5.2466  -33.0615  -35.4843 C   0  0  0  0  0  0  0  0  0  0  0  0
   -7.6792  -32.9816  -35.5451 C   0  0  0  0  0  0  0  0  0  0  0  0
   -5.1702  -31.7192  -35.0986 C   0  0  0  0  0  0  0  0  0  0  0  0
  -11.3522  -25.8129  -36.1175 C   0  0  0  0  0  0  0  0  0  0  0  0
  -13.1426  -27.3659  -35.6482 C   0  0  0  0  0  0  0  0  0  0  0  0
  -17.1086  -23.4780  -39.4210 C   0  0  0  0  0  0  0  0  0  0  0  0
  -10.4757  -26.5964  -35.3669 C   0  0  0  0  0  0  0  0  0  0  0  0
  -12.2661  -28.1494  -34.8977 C   0  0  0  0  0  0  0  0  0  0  0  0
  -18.4361  -23.2031  -39.7489 C   0  0  0  0  0  0  0  0  0  0  0  0
  -17.8421  -24.6794  -37.4575 C   0  0  0  0  0  0  0  0  0  0  0  0
   -7.6212  -31.6322  -35.1579 C   0  0  0  0  0  0  0  0  0  0  0  0
   -6.3794  -31.0398  -34.9462 C   0  0  0  0  0  0  0  0  0  0  0  0
  -12.6857  -26.1976  -36.2581 C   0  0  0  0  0  0  0  0  0  0  0  0
  -16.8115  -24.2162  -38.2753 C   0  0  0  0  0  0  0  0  0  0  0  0
  -10.9326  -27.7648  -34.7571 C   0  0  0  0  0  0  0  0  0  0  0  0
  -19.4667  -23.6664  -38.9311 C   0  0  0  0  0  0  0  0  0  0  0  0
  -19.1698  -24.4046  -37.7853 C   0  0  0  0  0  0  0  0  0  0  0  0
   -8.0343  -29.6139  -34.5961 C   0  0  0  0  0  0  0  0  0  0  0  0
  -14.9772  -25.4646  -37.0522 C   0  0  0  0  0  0  0  0  0  0  0  0
   -8.6787  -28.3324  -34.2534 C   0  0  0  0  0  0  0  0  0  0  0  0
   -8.6372  -30.7311  -34.9358 N   0  0  0  0  0  0  0  0  0  0  0  0
   -6.6739  -29.7493  -34.5880 N   0  0  0  0  0  0  0  0  0  0  0  0
  -13.5625  -25.4138  -37.0087 N   0  0  0  0  0  0  0  0  0  0  0  0
  -15.4647  -24.4953  -37.9434 N   0  0  0  0  0  0  0  0  0  0  0  0
  -15.6684  -26.2437  -36.4038 O   0  0  0  0  0  0  0  0  0  0  0  0
  -10.0732  -28.5330  -34.0211 O   0  0  0  0  0  0  0  0  0  0  0  0
  -21.0906  -23.2904  -39.3892 Cl  0  0  0  0  0  0  0  0  0  0  0  0
  -20.4024  -25.0038  -36.7316 Cl  0  0  0  0  0  0  0  0  0  0  0  0
   -6.5046  -34.7282  -36.0038 H   0  0  0  0  0  0  0  0  0  0  0  0
   -4.3297  -33.6314  -35.6140 H   0  0  0  0  0  0  0  0  0  0  0  0
   -8.6305  -33.4742  -35.7194 H   0  0  0  0  0  0  0  0  0  0  0  0
   -4.2156  -31.2345  -34.9286 H   0  0  0  0  0  0  0  0  0  0  0  0
  -10.9854  -24.9044  -36.5885 H   0  0  0  0  0  0  0  0  0  0  0  0
  -14.1795  -27.6754  -35.7508 H   0  0  0  0  0  0  0  0  0  0  0  0
  -16.3130  -23.1136  -40.0660 H   0  0  0  0  0  0  0  0  0  0  0  0
   -9.4382  -26.2916  -35.2612 H   0  0  0  0  0  0  0  0  0  0  0  0
  -12.6278  -29.0584  -34.4248 H   0  0  0  0  0  0  0  0  0  0  0  0
  -18.6491  -22.6277  -40.6463 H   0  0  0  0  0  0  0  0  0  0  0  0
  -17.6041  -25.2537  -36.5643 H   0  0  0  0  0  0  0  0  0  0  0  0
   -8.2456  -27.8772  -33.3446 H   0  0  0  0  0  0  0  0  0  0  0  0
   -8.5711  -27.5865  -35.0611 H   0  0  0  0  0  0  0  0  0  0  0  0
   -6.0021  -29.0283  -34.3601 H   0  0  0  0  0  0  0  0  0  0  0  0
  -13.1244  -24.7070  -37.6089 H   0  0  0  0  0  0  0  0  0  0  0  0
  -14.7694  -23.9197  -38.4117 H   0  0  0  0  0  0  0  0  0  0  0  0
  1  2  2  0  0  0  0
  1  3  1  0  0  0  0
  2  4  1  0  0  0  0
  3 12  2  0  0  0  0
  4 13  2  0  0  0  0
  5  8  1  0  0  0  0
  5 14  2  0  0  0  0
  6  9  2  0  0  0  0
  6 14  1  0  0  0  0
  7 10  1  0  0  0  0
  7 15  2  0  0  0  0
  8 16  2  0  0  0  0
  9 16  1  0  0  0  0
 10 17  2  0  0  0  0
 11 15  1  0  0  0  0
 11 18  2  0  0  0  0
 12 13  1  0  0  0  0
 12 22  1  0  0  0  0
 13 23  1  0  0  0  0
 14 24  1  0  0  0  0
 15 25  1  0  0  0  0
 16 27  1  0  0  0  0
 17 18  1  0  0  0  0
 17 28  1  0  0  0  0
 18 29  1  0  0  0  0
 19 21  1  0  0  0  0
 19 22  2  0  0  0  0
 19 23  1  0  0  0  0
 20 24  1  0  0  0  0
 20 25  1  0  0  0  0
 20 26  2  0  0  0  0
 21 27  1  0  0  0  0
  1 30  1  0  0  0  0
  2 31  1  0  0  0  0
  3 32  1  0  0  0  0
  4 33  1  0  0  0  0
  5 34  1  0  0  0  0
  6 35  1  0  0  0  0
  7 36  1  0  0  0  0
  8 37  1  0  0  0  0
  9 38  1  0  0  0  0
 10 39  1  0  0  0  0
 11 40  1  0  0  0  0
 21 41  1  0  0  0  0
 21 42  1  0  0  0  0
 23 43  1  0  0  0  0
 24 44  1  0  0  0  0
 25 45  1  0  0  0  0
M  END
> <Name>
EZ_19

> <SourceTag>
EZ_19

> <Activity_sEH>
10.5

> <Activity_FLAP>
0.6

> <Gold.Version>
5.2

> <Gold.Id.Protein>
6HGV|6HGV_protein|mol2

> <Gold.PLP.Fitness>
84.3610

> <Gold.PLP.PLP>
-81.5526

> <Gold.PLP.part.hbond>
-6.3023

> <Gold.PLP.part.metal>
0.0000

> <Gold.PLP.part.buried>
3.2525

> <Gold.PLP.part.nonpolar>
-77.7097

> <Gold.PLP.part.repulsive>
0.0789

> <Gold.PLP.ligand.clash>
0.5274

> <Gold.PLP.ligand.torsion>
0.9123

> <Gold.PLP.Chemscore.Hbond>
1.1648

> <Gold.PLP.Chemscore.CHOScore>
0.0000

> <Gold.PLP.Chemscore.Metal>
0.0000

> <Gold.Chemscore.Hbonds>
donor molecule, donor type, donor heavy atom, donor atom, acceptor molecule, acceptor atom, score
      L1  H    24    44       P1  1931  0.66
      P1  H  1247  3847       L1    26  0.51

> <Gold.PLP.Chemscore.Internal.Correction>
0.3577

> <Gold.Protein.RotatedTorsions>
[ 3525  925  924  922 ] final  113.42 input   59.99 | X-H torsion
[ 3781 1176 1175 1172 ] final  132.42 input   60.00 | X-H torsion
[ 4531 1957 1955 1953 ] final   52.99 input   60.00 | X-H torsion
[ 3847 1247 1246 1244 ] final  -67.34 input   60.00 | X-H torsion
[ 4507 1931 1930 1928 ] final -159.70 input   60.00 | X-H torsion
[ 3677 1070 1069 1066 ] final   56.29 input   60.00 | X-H torsion

> <Gold.Protein.ActiveResidues>
 GLY266  PHE267  PRO268  GLU269  MET310  HIS334  ASP335  TRP336  GLY337  GLY338 
 MET339  LEU340  TRP342  TYR343  LEU358  ASN359  THR360  PRO361  ILE363  ALA365 
 MET369  SER370  PRO371  LEU372  GLU373  SER374  ILE375  LYS376  ALA377  ASN378 
 VAL380  PHE381  ASP382  TYR383  GLN384  PHE387  GLN388  LEU397  SER407  LEU408 
 PHE409  ARG410  LEU417  MET419  LEU428  PHE429  PHE459  TRP465  TYR466  ASN468 
 MET469  GLU470  ASN472  TRP473  ALA476  ASP496  PHE497  VAL498  LEU499  MET503 
 HIS524  TRP525 

> <Gold.Protein.RotatedAtoms>
   -2.1650  -30.1749  -30.4243 H   0  0  0  0  0  0  0  0  0  0  0  0  # atno 3525 bound_to 925 
  -12.4834  -22.4854  -30.3263 H   0  0  0  0  0  0  0  0  0  0  0  0  # atno 3677 bound_to 1070
   -9.6792  -36.9635  -32.4039 H   0  0  0  0  0  0  0  0  0  0  0  0  # atno 3781 bound_to 1176
  -16.0431  -27.7622  -37.2897 H   0  0  0  0  0  0  0  0  0  0  0  0  # atno 3847 bound_to 1247
  -13.0915  -24.0029  -40.3743 H   0  0  0  0  0  0  0  0  0  0  0  0  # atno 4507 bound_to 1931
   -3.0836  -33.3043  -36.6598 H   0  0  0  0  0  0  0  0  0  0  0  0  # atno 4531 bound_to 1957
   -3.6584  -29.5297  -30.3880 LP  0  0  0  0  0  0  0  0  0  0  0  0  # atno 5201 bound_to 925 
   -2.9249  -29.9765  -28.9991 LP  0  0  0  0  0  0  0  0  0  0  0  0  # atno 5202 bound_to 925 
  -10.8356  -37.3251  -33.4902 LP  0  0  0  0  0  0  0  0  0  0  0  0  # atno 5205 bound_to 1176
   -9.5984  -36.3438  -33.9064 LP  0  0  0  0  0  0  0  0  0  0  0  0  # atno 5206 bound_to 1176
   -1.8689  -32.2420  -36.8700 LP  0  0  0  0  0  0  0  0  0  0  0  0  # atno 5213 bound_to 1957
   -1.5776  -33.8466  -36.9531 LP  0  0  0  0  0  0  0  0  0  0  0  0  # atno 5214 bound_to 1957
  -14.5775  -27.5209  -37.9545 LP  0  0  0  0  0  0  0  0  0  0  0  0  # atno 5227 bound_to 1247
  -14.9378  -28.9562  -37.2641 LP  0  0  0  0  0  0  0  0  0  0  0  0  # atno 5228 bound_to 1247
  -12.5006  -24.3829  -38.9065 LP  0  0  0  0  0  0  0  0  0  0  0  0  # atno 5245 bound_to 1931
  -13.6025  -25.3525  -39.6223 LP  0  0  0  0  0  0  0  0  0  0  0  0  # atno 5246 bound_to 1931
  -12.2733  -23.8396  -31.2038 LP  0  0  0  0  0  0  0  0  0  0  0  0  # atno 5265 bound_to 1070
  -11.0936  -22.7122  -31.1418 LP  0  0  0  0  0  0  0  0  0  0  0  0  # atno 5266 bound_to 1070

$$$$
EZ_19|Lisa_paper2_min|sdf|7|dock6
  -GOLD-  10202014343D 1   1.00000     0.00000

 45 48  0  0  0  0  0  0  0  0  1 V2000
   -5.1771  -32.1828  -35.5005 C   0  0  0  0  0  0  0  0  0  0  0  0
   -4.6869  -30.8758  -35.5514 C   0  0  0  0  0  0  0  0  0  0  0  0
   -6.4971  -32.4436  -35.1118 C   0  0  0  0  0  0  0  0  0  0  0  0
   -5.4949  -29.7841  -35.2171 C   0  0  0  0  0  0  0  0  0  0  0  0
  -13.1246  -27.4187  -35.8216 C   0  0  0  0  0  0  0  0  0  0  0  0
  -11.5490  -25.6070  -36.0903 C   0  0  0  0  0  0  0  0  0  0  0  0
  -17.1960  -23.6281  -39.7084 C   0  0  0  0  0  0  0  0  0  0  0  0
  -12.2469  -28.0516  -34.9415 C   0  0  0  0  0  0  0  0  0  0  0  0
  -10.6713  -26.2398  -35.2101 C   0  0  0  0  0  0  0  0  0  0  0  0
  -18.5220  -23.3186  -40.0103 C   0  0  0  0  0  0  0  0  0  0  0  0
  -17.9314  -24.9271  -37.8088 C   0  0  0  0  0  0  0  0  0  0  0  0
   -7.3229  -31.3586  -34.7723 C   0  0  0  0  0  0  0  0  0  0  0  0
   -6.8059  -30.0675  -34.8329 C   0  0  0  0  0  0  0  0  0  0  0  0
  -12.7757  -26.1964  -36.3961 C   0  0  0  0  0  0  0  0  0  0  0  0
  -16.9006  -24.4324  -38.6076 C   0  0  0  0  0  0  0  0  0  0  0  0
  -11.0203  -27.4621  -34.6356 C   0  0  0  0  0  0  0  0  0  0  0  0
  -19.5529  -23.8135  -39.2114 C   0  0  0  0  0  0  0  0  0  0  0  0
  -19.2576  -24.6177  -38.1106 C   0  0  0  0  0  0  0  0  0  0  0  0
   -8.9194  -30.0708  -34.1787 C   0  0  0  0  0  0  0  0  0  0  0  0
  -15.0655  -25.4782  -37.2083 C   0  0  0  0  0  0  0  0  0  0  0  0
  -10.2095  -29.5092  -33.7368 C   0  0  0  0  0  0  0  0  0  0  0  0
   -8.6369  -31.3408  -34.3642 N   0  0  0  0  0  0  0  0  0  0  0  0
   -7.8487  -29.2644  -34.4481 N   0  0  0  0  0  0  0  0  0  0  0  0
  -13.6535  -25.5634  -37.2766 N   0  0  0  0  0  0  0  0  0  0  0  0
  -15.5553  -24.7465  -38.3021 N   0  0  0  0  0  0  0  0  0  0  0  0
  -15.7530  -25.9736  -36.3211 O   0  0  0  0  0  0  0  0  0  0  0  0
  -10.1597  -28.0826  -33.7727 O   0  0  0  0  0  0  0  0  0  0  0  0
  -21.1748  -23.3920  -39.6355 Cl  0  0  0  0  0  0  0  0  0  0  0  0
  -20.4906  -25.2586  -37.0821 Cl  0  0  0  0  0  0  0  0  0  0  0  0
   -4.5248  -33.0107  -35.7669 H   0  0  0  0  0  0  0  0  0  0  0  0
   -3.6573  -30.7031  -35.8555 H   0  0  0  0  0  0  0  0  0  0  0  0
   -6.8683  -33.4628  -35.0765 H   0  0  0  0  0  0  0  0  0  0  0  0
   -5.1165  -28.7690  -35.2571 H   0  0  0  0  0  0  0  0  0  0  0  0
  -14.0780  -27.8871  -36.0528 H   0  0  0  0  0  0  0  0  0  0  0  0
  -11.2664  -24.6548  -36.5321 H   0  0  0  0  0  0  0  0  0  0  0  0
  -16.4002  -23.2387  -40.3384 H   0  0  0  0  0  0  0  0  0  0  0  0
  -12.5245  -29.0035  -34.4972 H   0  0  0  0  0  0  0  0  0  0  0  0
   -9.7172  -25.7758  -34.9758 H   0  0  0  0  0  0  0  0  0  0  0  0
  -18.7338  -22.6918  -40.8728 H   0  0  0  0  0  0  0  0  0  0  0  0
  -17.6946  -25.5529  -36.9505 H   0  0  0  0  0  0  0  0  0  0  0  0
  -11.0482  -29.8354  -34.3777 H   0  0  0  0  0  0  0  0  0  0  0  0
  -10.4627  -29.8161  -32.7063 H   0  0  0  0  0  0  0  0  0  0  0  0
   -7.8269  -28.2556  -34.3780 H   0  0  0  0  0  0  0  0  0  0  0  0
  -13.2183  -25.0978  -38.0801 H   0  0  0  0  0  0  0  0  0  0  0  0
  -14.8630  -24.3967  -38.9597 H   0  0  0  0  0  0  0  0  0  0  0  0
  1  2  2  0  0  0  0
  1  3  1  0  0  0  0
  2  4  1  0  0  0  0
  3 12  2  0  0  0  0
  4 13  2  0  0  0  0
  5  8  1  0  0  0  0
  5 14  2  0  0  0  0
  6  9  2  0  0  0  0
  6 14  1  0  0  0  0
  7 10  1  0  0  0  0
  7 15  2  0  0  0  0
  8 16  2  0  0  0  0
  9 16  1  0  0  0  0
 10 17  2  0  0  0  0
 11 15  1  0  0  0  0
 11 18  2  0  0  0  0
 12 13  1  0  0  0  0
 12 22  1  0  0  0  0
 13 23  1  0  0  0  0
 14 24  1  0  0  0  0
 15 25  1  0  0  0  0
 16 27  1  0  0  0  0
 17 18  1  0  0  0  0
 17 28  1  0  0  0  0
 18 29  1  0  0  0  0
 19 21  1  0  0  0  0
 19 22  2  0  0  0  0
 19 23  1  0  0  0  0
 20 24  1  0  0  0  0
 20 25  1  0  0  0  0
 20 26  2  0  0  0  0
 21 27  1  0  0  0  0
  1 30  1  0  0  0  0
  2 31  1  0  0  0  0
  3 32  1  0  0  0  0
  4 33  1  0  0  0  0
  5 34  1  0  0  0  0
  6 35  1  0  0  0  0
  7 36  1  0  0  0  0
  8 37  1  0  0  0  0
  9 38  1  0  0  0  0
 10 39  1  0  0  0  0
 11 40  1  0  0  0  0
 21 41  1  0  0  0  0
 21 42  1  0  0  0  0
 23 43  1  0  0  0  0
 24 44  1  0  0  0  0
 25 45  1  0  0  0  0
M  END
> <Name>
EZ_19

> <SourceTag>
EZ_19

> <Activity_sEH>
10.5

> <Activity_FLAP>
0.6

> <Gold.Version>
5.2

> <Gold.Id.Protein>
6HGV|6HGV_protein|mol2

> <Gold.PLP.Fitness>
83.8405

> <Gold.PLP.PLP>
-80.9989

> <Gold.PLP.part.hbond>
-8.6407

> <Gold.PLP.part.metal>
0.0000

> <Gold.PLP.part.buried>
3.7746

> <Gold.PLP.part.nonpolar>
-76.1795

> <Gold.PLP.part.repulsive>
0.0844

> <Gold.PLP.ligand.clash>
0.0000

> <Gold.PLP.ligand.torsion>
1.0710

> <Gold.PLP.Chemscore.Hbond>
1.0643

> <Gold.PLP.Chemscore.CHOScore>
0.0000

> <Gold.PLP.Chemscore.Metal>
0.0000

> <Gold.Chemscore.Hbonds>
donor molecule, donor type, donor heavy atom, donor atom, acceptor molecule, acceptor atom, score
      L1  H    24    44       P1  1931  0.96
      L1  H    25    45       P1  1931  0.01
      P1  H  1247  3847       L1    26  0.10

> <Gold.PLP.Chemscore.Internal.Correction>
0.3577

> <Gold.Protein.RotatedTorsions>
[ 3525  925  924  922 ] final  -72.19 input   59.99 | X-H torsion
[ 3781 1176 1175 1172 ] final   10.14 input   60.00 | X-H torsion
[ 4531 1957 1955 1953 ] final  144.88 input   60.00 | X-H torsion
[ 3847 1247 1246 1244 ] final  -45.60 input   60.00 | X-H torsion
[ 4507 1931 1930 1928 ] final  179.30 input   60.00 | X-H torsion
[ 3677 1070 1069 1066 ] final -154.00 input   60.00 | X-H torsion

> <Gold.Protein.ActiveResidues>
 GLY266  PHE267  PRO268  GLU269  MET310  HIS334  ASP335  TRP336  GLY337  GLY338 
 MET339  LEU340  TRP342  TYR343  LEU358  ASN359  THR360  PRO361  ILE363  ALA365 
 MET369  SER370  PRO371  LEU372  GLU373  SER374  ILE375  LYS376  ALA377  ASN378 
 VAL380  PHE381  ASP382  TYR383  GLN384  PHE387  GLN388  LEU397  SER407  LEU408 
 PHE409  ARG410  LEU417  MET419  LEU428  PHE429  PHE459  TRP465  TYR466  ASN468 
 MET469  GLU470  ASN472  TRP473  ALA476  ASP496  PHE497  VAL498  LEU499  MET503 
 HIS524  TRP525 

> <Gold.Protein.RotatedAtoms>
   -3.6178  -29.6374  -29.3765 H   0  0  0  0  0  0  0  0  0  0  0  0  # atno 3525 bound_to 925 
  -11.1496  -23.1405  -31.3552 H   0  0  0  0  0  0  0  0  0  0  0  0  # atno 3677 bound_to 1070
  -10.8263  -37.3095  -33.5235 H   0  0  0  0  0  0  0  0  0  0  0  0  # atno 3781 bound_to 1176
  -16.0588  -28.0895  -37.1584 H   0  0  0  0  0  0  0  0  0  0  0  0  # atno 3847 bound_to 1247
  -12.8633  -23.8419  -40.1783 H   0  0  0  0  0  0  0  0  0  0  0  0  # atno 4507 bound_to 1931
   -1.9824  -34.0452  -36.8820 H   0  0  0  0  0  0  0  0  0  0  0  0  # atno 4531 bound_to 1957
   -2.1313  -30.2702  -29.5715 LP  0  0  0  0  0  0  0  0  0  0  0  0  # atno 5201 bound_to 925 
   -2.9889  -29.7774  -30.8708 LP  0  0  0  0  0  0  0  0  0  0  0  0  # atno 5202 bound_to 925 
   -9.5722  -36.3359  -33.8808 LP  0  0  0  0  0  0  0  0  0  0  0  0  # atno 5205 bound_to 1176
   -9.7066  -36.9846  -32.3882 LP  0  0  0  0  0  0  0  0  0  0  0  0  # atno 5206 bound_to 1176
   -3.0613  -32.8484  -36.6538 LP  0  0  0  0  0  0  0  0  0  0  0  0  # atno 5213 bound_to 1957
   -1.4941  -32.4941  -36.9456 LP  0  0  0  0  0  0  0  0  0  0  0  0  # atno 5214 bound_to 1957
  -14.8583  -27.3047  -37.9271 LP  0  0  0  0  0  0  0  0  0  0  0  0  # atno 5227 bound_to 1247
  -14.6411  -28.8429  -37.4239 LP  0  0  0  0  0  0  0  0  0  0  0  0  # atno 5228 bound_to 1247
  -12.6434  -24.6761  -38.7985 LP  0  0  0  0  0  0  0  0  0  0  0  0  # atno 5245 bound_to 1931
  -13.6895  -25.2213  -39.9277 LP  0  0  0  0  0  0  0  0  0  0  0  0  # atno 5246 bound_to 1931
  -12.0800  -22.2277  -30.3809 LP  0  0  0  0  0  0  0  0  0  0  0  0  # atno 5265 bound_to 1070
  -12.6301  -23.6644  -30.9286 LP  0  0  0  0  0  0  0  0  0  0  0  0  # atno 5266 bound_to 1070

$$$$
EZ_19|Lisa_paper2_min|sdf|7|dock8
  -GOLD-  10202014343D 1   1.00000     0.00000

 45 48  0  0  0  0  0  0  0  0  1 V2000
   -6.8924  -33.4036  -35.7217 C   0  0  0  0  0  0  0  0  0  0  0  0
   -5.6339  -32.8488  -35.4782 C   0  0  0  0  0  0  0  0  0  0  0  0
   -8.0567  -32.6359  -35.5924 C   0  0  0  0  0  0  0  0  0  0  0  0
   -5.4921  -31.5102  -35.0977 C   0  0  0  0  0  0  0  0  0  0  0  0
  -11.6875  -25.7006  -36.3487 C   0  0  0  0  0  0  0  0  0  0  0  0
  -13.3329  -27.3664  -35.7528 C   0  0  0  0  0  0  0  0  0  0  0  0
  -17.6002  -23.7367  -39.5566 C   0  0  0  0  0  0  0  0  0  0  0  0
  -10.7565  -26.3226  -35.5168 C   0  0  0  0  0  0  0  0  0  0  0  0
  -12.4019  -27.9884  -34.9211 C   0  0  0  0  0  0  0  0  0  0  0  0
  -18.9402  -23.4130  -39.7685 C   0  0  0  0  0  0  0  0  0  0  0  0
  -18.1937  -24.8437  -37.4929 C   0  0  0  0  0  0  0  0  0  0  0  0
   -7.9328  -31.2893  -35.2107 C   0  0  0  0  0  0  0  0  0  0  0  0
   -6.6651  -30.7647  -34.9751 C   0  0  0  0  0  0  0  0  0  0  0  0
  -12.9757  -26.2224  -36.4667 C   0  0  0  0  0  0  0  0  0  0  0  0
  -17.2269  -24.4521  -38.4188 C   0  0  0  0  0  0  0  0  0  0  0  0
  -11.1136  -27.4666  -34.8031 C   0  0  0  0  0  0  0  0  0  0  0  0
  -19.9071  -23.8047  -38.8426 C   0  0  0  0  0  0  0  0  0  0  0  0
  -19.5340  -24.5201  -37.7047 C   0  0  0  0  0  0  0  0  0  0  0  0
   -8.2462  -29.2479  -34.6683 C   0  0  0  0  0  0  0  0  0  0  0  0
  -15.3086  -25.4884  -37.1282 C   0  0  0  0  0  0  0  0  0  0  0  0
   -8.8264  -27.9308  -34.3461 C   0  0  0  0  0  0  0  0  0  0  0  0
   -8.9022  -30.3325  -35.0153 N   0  0  0  0  0  0  0  0  0  0  0  0
   -6.8958  -29.4577  -34.6299 N   0  0  0  0  0  0  0  0  0  0  0  0
  -13.9071  -25.6003  -37.2985 N   0  0  0  0  0  0  0  0  0  0  0  0
  -15.8675  -24.7807  -38.2045 N   0  0  0  0  0  0  0  0  0  0  0  0
  -15.9354  -25.9452  -36.1776 O   0  0  0  0  0  0  0  0  0  0  0  0
  -10.2009  -28.0765  -33.9875 O   0  0  0  0  0  0  0  0  0  0  0  0
  -21.5501  -23.3708  -39.1600 Cl  0  0  0  0  0  0  0  0  0  0  0  0
  -20.6851  -25.0313  -36.5205 Cl  0  0  0  0  0  0  0  0  0  0  0  0
   -6.9703  -34.4471  -36.0166 H   0  0  0  0  0  0  0  0  0  0  0  0
   -4.7472  -33.4689  -35.5851 H   0  0  0  0  0  0  0  0  0  0  0  0
   -9.0296  -33.0766  -35.7848 H   0  0  0  0  0  0  0  0  0  0  0  0
   -4.5162  -31.0777  -34.9094 H   0  0  0  0  0  0  0  0  0  0  0  0
  -11.3983  -24.8097  -36.9003 H   0  0  0  0  0  0  0  0  0  0  0  0
  -14.3339  -27.7818  -35.8369 H   0  0  0  0  0  0  0  0  0  0  0  0
  -16.8548  -23.4280  -40.2852 H   0  0  0  0  0  0  0  0  0  0  0  0
   -9.7546  -25.9114  -35.4292 H   0  0  0  0  0  0  0  0  0  0  0  0
  -12.6860  -28.8792  -34.3675 H   0  0  0  0  0  0  0  0  0  0  0  0
  -19.2132  -22.8564  -40.6615 H   0  0  0  0  0  0  0  0  0  0  0  0
  -17.8963  -25.4005  -36.6064 H   0  0  0  0  0  0  0  0  0  0  0  0
   -8.3063  -27.4404  -33.5037 H   0  0  0  0  0  0  0  0  0  0  0  0
   -8.7687  -27.2335  -35.2009 H   0  0  0  0  0  0  0  0  0  0  0  0
   -6.1905  -28.7732  -34.3911 H   0  0  0  0  0  0  0  0  0  0  0  0
  -13.5262  -25.1663  -38.1460 H   0  0  0  0  0  0  0  0  0  0  0  0
  -15.2210  -24.4626  -38.9221 H   0  0  0  0  0  0  0  0  0  0  0  0
  1  2  2  0  0  0  0
  1  3  1  0  0  0  0
  2  4  1  0  0  0  0
  3 12  2  0  0  0  0
  4 13  2  0  0  0  0
  5  8  1  0  0  0  0
  5 14  2  0  0  0  0
  6  9  2  0  0  0  0
  6 14  1  0  0  0  0
  7 10  1  0  0  0  0
  7 15  2  0  0  0  0
  8 16  2  0  0  0  0
  9 16  1  0  0  0  0
 10 17  2  0  0  0  0
 11 15  1  0  0  0  0
 11 18  2  0  0  0  0
 12 13  1  0  0  0  0
 12 22  1  0  0  0  0
 13 23  1  0  0  0  0
 14 24  1  0  0  0  0
 15 25  1  0  0  0  0
 16 27  1  0  0  0  0
 17 18  1  0  0  0  0
 17 28  1  0  0  0  0
 18 29  1  0  0  0  0
 19 21  1  0  0  0  0
 19 22  2  0  0  0  0
 19 23  1  0  0  0  0
 20 24  1  0  0  0  0
 20 25  1  0  0  0  0
 20 26  2  0  0  0  0
 21 27  1  0  0  0  0
  1 30  1  0  0  0  0
  2 31  1  0  0  0  0
  3 32  1  0  0  0  0
  4 33  1  0  0  0  0
  5 34  1  0  0  0  0
  6 35  1  0  0  0  0
  7 36  1  0  0  0  0
  8 37  1  0  0  0  0
  9 38  1  0  0  0  0
 10 39  1  0  0  0  0
 11 40  1  0  0  0  0
 21 41  1  0  0  0  0
 21 42  1  0  0  0  0
 23 43  1  0  0  0  0
 24 44  1  0  0  0  0
 25 45  1  0  0  0  0
M  END
> <Name>
EZ_19

> <SourceTag>
EZ_19

> <Activity_sEH>
10.5

> <Activity_FLAP>
0.6

> <Gold.Version>
5.2

> <Gold.Id.Protein>
6HGV|6HGV_protein|mol2

> <Gold.PLP.Fitness>
83.6206

> <Gold.PLP.PLP>
-81.1757

> <Gold.PLP.part.hbond>
-6.8256

> <Gold.PLP.part.metal>
0.0000

> <Gold.PLP.part.buried>
3.6562

> <Gold.PLP.part.nonpolar>
-77.7022

> <Gold.PLP.part.repulsive>
0.0937

> <Gold.PLP.ligand.clash>
0.0000

> <Gold.PLP.ligand.torsion>
1.2734

> <Gold.PLP.Chemscore.Hbond>
1.0062

> <Gold.PLP.Chemscore.CHOScore>
0.0000

> <Gold.PLP.Chemscore.Metal>
0.0000

> <Gold.Chemscore.Hbonds>
donor molecule, donor type, donor heavy atom, donor atom, acceptor molecule, acceptor atom, score
      L1  H    24    44       P1  1931  0.97
      L1  H    25    45       P1  1931  0.02
      P1  H  1247  3847       L1    26  0.01

> <Gold.PLP.Chemscore.Internal.Correction>
0.3577

> <Gold.Protein.RotatedTorsions>
[ 3525  925  924  922 ] final -106.23 input   59.99 | X-H torsion
[ 3781 1176 1175 1172 ] final   18.72 input   60.00 | X-H torsion
[ 4531 1957 1955 1953 ] final  -39.29 input   60.00 | X-H torsion
[ 3847 1247 1246 1244 ] final  -29.66 input   60.00 | X-H torsion
[ 4507 1931 1930 1928 ] final  169.91 input   60.00 | X-H torsion
[ 3677 1070 1069 1066 ] final  -52.23 input   60.00 | X-H torsion

> <Gold.Protein.ActiveResidues>
 GLY266  PHE267  PRO268  GLU269  MET310  HIS334  ASP335  TRP336  GLY337  GLY338 
 MET339  LEU340  TRP342  TYR343  LEU358  ASN359  THR360  PRO361  ILE363  ALA365 
 MET369  SER370  PRO371  LEU372  GLU373  SER374  ILE375  LYS376  ALA377  ASN378 
 VAL380  PHE381  ASP382  TYR383  GLN384  PHE387  GLN388  LEU397  SER407  LEU408 
 PHE409  ARG410  LEU417  MET419  LEU428  PHE429  PHE459  TRP465  TYR466  ASN468 
 MET469  GLU470  ASN472  TRP473  ALA476  ASP496  PHE497  VAL498  LEU499  MET503 
 HIS524  TRP525 

> <Gold.Protein.RotatedAtoms>
   -3.2220  -29.8393  -29.0558 H   0  0  0  0  0  0  0  0  0  0  0  0  # atno 3525 bound_to 925 
  -12.4230  -23.7920  -31.1002 H   0  0  0  0  0  0  0  0  0  0  0  0  # atno 3677 bound_to 1070
  -10.8289  -37.3601  -33.3930 H   0  0  0  0  0  0  0  0  0  0  0  0  # atno 3781 bound_to 1176
  -15.9912  -28.3313  -37.0924 H   0  0  0  0  0  0  0  0  0  0  0  0  # atno 3847 bound_to 1247
  -12.7682  -23.8008  -40.0654 H   0  0  0  0  0  0  0  0  0  0  0  0  # atno 4507 bound_to 1931
   -2.3099  -32.2051  -36.7879 H   0  0  0  0  0  0  0  0  0  0  0  0  # atno 4531 bound_to 1957
   -2.0604  -30.2510  -30.1185 LP  0  0  0  0  0  0  0  0  0  0  0  0  # atno 5201 bound_to 925 
   -3.4585  -29.5932  -30.6469 LP  0  0  0  0  0  0  0  0  0  0  0  0  # atno 5202 bound_to 925 
   -9.6745  -36.3701  -33.9718 LP  0  0  0  0  0  0  0  0  0  0  0  0  # atno 5205 bound_to 1176
   -9.6017  -36.8995  -32.4287 LP  0  0  0  0  0  0  0  0  0  0  0  0  # atno 5206 bound_to 1176
   -1.3188  -33.4790  -36.9959 LP  0  0  0  0  0  0  0  0  0  0  0  0  # atno 5213 bound_to 1957
   -2.9068  -33.7164  -36.6982 LP  0  0  0  0  0  0  0  0  0  0  0  0  # atno 5214 bound_to 1957
  -15.0966  -27.2148  -37.8679 LP  0  0  0  0  0  0  0  0  0  0  0  0  # atno 5227 bound_to 1247
  -14.4710  -28.6892  -37.5494 LP  0  0  0  0  0  0  0  0  0  0  0  0  # atno 5228 bound_to 1247
  -12.7268  -24.8053  -38.7858 LP  0  0  0  0  0  0  0  0  0  0  0  0  # atno 5245 bound_to 1931
  -13.7019  -25.1335  -40.0540 LP  0  0  0  0  0  0  0  0  0  0  0  0  # atno 5246 bound_to 1931
  -11.0861  -22.8744  -31.2379 LP  0  0  0  0  0  0  0  0  0  0  0  0  # atno 5265 bound_to 1070
  -12.3417  -22.3616  -30.3285 LP  0  0  0  0  0  0  0  0  0  0  0  0  # atno 5266 bound_to 1070

$$$$
EZ_20|Lisa_paper2_min|sdf|8|dock10
  -GOLD-  10202014353D 1   1.00000     0.00000

 60 63  0  0  0  0  0  0  0  0  1 V2000
   -3.0698  -29.6824  -33.3597 C   0  0  0  0  0  0  0  0  0  0  0  0
   -3.2634  -31.0524  -33.5237 C   0  0  0  0  0  0  0  0  0  0  0  0
   -4.1181  -28.7826  -33.5732 C   0  0  0  0  0  0  0  0  0  0  0  0
   -4.5071  -31.5681  -33.9051 C   0  0  0  0  0  0  0  0  0  0  0  0
  -11.1371  -25.0932  -35.4687 C   0  0  0  0  0  0  0  0  0  0  0  0
  -11.9419  -27.0939  -36.5581 C   0  0  0  0  0  0  0  0  0  0  0  0
  -16.6497  -23.2338  -39.4936 C   0  0  0  0  0  0  0  0  0  0  0  0
  -10.1903  -25.8499  -34.7784 C   0  0  0  0  0  0  0  0  0  0  0  0
  -10.9950  -27.8506  -35.8677 C   0  0  0  0  0  0  0  0  0  0  0  0
  -17.9837  -23.0885  -39.8741 C   0  0  0  0  0  0  0  0  0  0  0  0
  -17.3287  -24.6390  -37.6493 C   0  0  0  0  0  0  0  0  0  0  0  0
   -5.3745  -29.2838  -33.9571 C   0  0  0  0  0  0  0  0  0  0  0  0
   -5.5533  -30.6585  -34.1172 C   0  0  0  0  0  0  0  0  0  0  0  0
  -12.0130  -25.7152  -36.3586 C   0  0  0  0  0  0  0  0  0  0  0  0
  -16.3222  -24.0090  -38.3812 C   0  0  0  0  0  0  0  0  0  0  0  0
  -10.1192  -27.2286  -34.9780 C   0  0  0  0  0  0  0  0  0  0  0  0
  -18.9903  -23.7185  -39.1423 C   0  0  0  0  0  0  0  0  0  0  0  0
  -18.6628  -24.4937  -38.0298 C   0  0  0  0  0  0  0  0  0  0  0  0
   -7.4083  -29.5290  -34.5328 C   0  0  0  0  0  0  0  0  0  0  0  0
   -7.5567  -31.9996  -34.7727 C   0  0  0  0  0  0  0  0  0  0  0  0
  -14.3387  -25.1275  -37.2357 C   0  0  0  0  0  0  0  0  0  0  0  0
   -8.0901  -34.7518  -35.6209 C   0  0  0  0  0  0  0  0  0  0  0  0
   -6.2515  -35.3089  -34.0026 C   0  0  0  0  0  0  0  0  0  0  0  0
   -8.3141  -34.1262  -33.1933 C   0  0  0  0  0  0  0  0  0  0  0  0
   -8.8102  -29.2122  -34.8905 C   0  0  0  0  0  0  0  0  0  0  0  0
   -7.3467  -34.3071  -34.3621 C   0  0  0  0  0  0  0  0  0  0  0  0
   -6.5331  -28.6035  -34.2190 N   0  0  0  0  0  0  0  0  0  0  0  0
   -6.8835  -30.8053  -34.4923 N   0  0  0  0  0  0  0  0  0  0  0  0
  -12.9602  -24.9585  -37.0490 N   0  0  0  0  0  0  0  0  0  0  0  0
  -14.9662  -24.1569  -37.9953 N   0  0  0  0  0  0  0  0  0  0  0  0
   -8.7334  -32.0055  -35.0945 O   0  0  0  0  0  0  0  0  0  0  0  0
   -9.1902  -27.9711  -34.3007 O   0  0  0  0  0  0  0  0  0  0  0  0
   -6.7127  -33.0523  -34.6272 O   0  0  0  0  0  0  0  0  0  0  0  0
  -15.0820  -26.3934  -36.4078 S   0  0  0  0  0  0  0  0  0  0  0  0
  -20.6240  -23.4975  -39.6622 Cl  0  0  0  0  0  0  0  0  0  0  0  0
  -19.8649  -25.2970  -37.0818 Cl  0  0  0  0  0  0  0  0  0  0  0  0
   -2.0939  -29.3079  -33.0629 H   0  0  0  0  0  0  0  0  0  0  0  0
   -2.4339  -31.7342  -33.3530 H   0  0  0  0  0  0  0  0  0  0  0  0
   -3.9597  -27.7164  -33.4439 H   0  0  0  0  0  0  0  0  0  0  0  0
   -4.6316  -32.6377  -34.0260 H   0  0  0  0  0  0  0  0  0  0  0  0
  -11.1835  -24.0194  -35.3056 H   0  0  0  0  0  0  0  0  0  0  0  0
  -12.6193  -27.5894  -37.2490 H   0  0  0  0  0  0  0  0  0  0  0  0
  -15.8729  -22.7399  -40.0717 H   0  0  0  0  0  0  0  0  0  0  0  0
   -9.5108  -25.3596  -34.0866 H   0  0  0  0  0  0  0  0  0  0  0  0
  -10.9446  -28.9243  -36.0274 H   0  0  0  0  0  0  0  0  0  0  0  0
  -18.2205  -22.4818  -40.7446 H   0  0  0  0  0  0  0  0  0  0  0  0
  -17.0670  -25.2414  -36.7816 H   0  0  0  0  0  0  0  0  0  0  0  0
   -8.8770  -34.0354  -35.8822 H   0  0  0  0  0  0  0  0  0  0  0  0
   -7.4128  -34.8515  -36.4753 H   0  0  0  0  0  0  0  0  0  0  0  0
   -8.5892  -35.7144  -35.4607 H   0  0  0  0  0  0  0  0  0  0  0  0
   -5.7156  -34.9938  -33.1000 H   0  0  0  0  0  0  0  0  0  0  0  0
   -5.5026  -35.3714  -34.8003 H   0  0  0  0  0  0  0  0  0  0  0  0
   -6.6602  -36.3101  -33.8314 H   0  0  0  0  0  0  0  0  0  0  0  0
   -7.7812  -33.8071  -32.2903 H   0  0  0  0  0  0  0  0  0  0  0  0
   -9.0858  -33.3832  -33.4198 H   0  0  0  0  0  0  0  0  0  0  0  0
   -8.8055  -35.0736  -32.9439 H   0  0  0  0  0  0  0  0  0  0  0  0
   -8.9478  -29.1307  -35.9813 H   0  0  0  0  0  0  0  0  0  0  0  0
   -9.5063  -29.9905  -34.5371 H   0  0  0  0  0  0  0  0  0  0  0  0
  -12.6061  -24.0980  -37.4842 H   0  0  0  0  0  0  0  0  0  0  0  0
  -14.3794  -23.3638  -38.2422 H   0  0  0  0  0  0  0  0  0  0  0  0
  1  2  2  0  0  0  0
  1  3  1  0  0  0  0
  2  4  1  0  0  0  0
  3 12  2  0  0  0  0
  4 13  2  0  0  0  0
  5  8  1  0  0  0  0
  5 14  2  0  0  0  0
  6  9  2  0  0  0  0
  6 14  1  0  0  0  0
  7 10  1  0  0  0  0
  7 15  2  0  0  0  0
  8 16  2  0  0  0  0
  9 16  1  0  0  0  0
 10 17  2  0  0  0  0
 11 15  1  0  0  0  0
 11 18  2  0  0  0  0
 12 13  1  0  0  0  0
 12 27  1  0  0  0  0
 13 28  1  0  0  0  0
 14 29  1  0  0  0  0
 15 30  1  0  0  0  0
 16 32  1  0  0  0  0
 17 18  1  0  0  0  0
 17 35  1  0  0  0  0
 18 36  1  0  0  0  0
 19 25  1  0  0  0  0
 19 27  2  0  0  0  0
 19 28  1  0  0  0  0
 20 28  1  0  0  0  0
 20 31  2  0  0  0  0
 20 33  1  0  0  0  0
 21 29  1  0  0  0  0
 21 30  1  0  0  0  0
 21 34  2  0  0  0  0
 22 26  1  0  0  0  0
 23 26  1  0  0  0  0
 24 26  1  0  0  0  0
 25 32  1  0  0  0  0
 26 33  1  0  0  0  0
  1 37  1  0  0  0  0
  2 38  1  0  0  0  0
  3 39  1  0  0  0  0
  4 40  1  0  0  0  0
  5 41  1  0  0  0  0
  6 42  1  0  0  0  0
  7 43  1  0  0  0  0
  8 44  1  0  0  0  0
  9 45  1  0  0  0  0
 10 46  1  0  0  0  0
 11 47  1  0  0  0  0
 22 48  1  0  0  0  0
 22 49  1  0  0  0  0
 22 50  1  0  0  0  0
 23 51  1  0  0  0  0
 23 52  1  0  0  0  0
 23 53  1  0  0  0  0
 24 54  1  0  0  0  0
 24 55  1  0  0  0  0
 24 56  1  0  0  0  0
 25 57  1  0  0  0  0
 25 58  1  0  0  0  0
 29 59  1  0  0  0  0
 30 60  1  0  0  0  0
M  END
> <Name>
EZ_20

> <SourceTag>
EZ_20

> <Activity_FLAP>
100

> <Activity_sEH>
19.1

> <Gold.Version>
5.2

> <Gold.Id.Protein>
6HGV|6HGV_protein|mol2

> <Gold.PLP.Fitness>
94.5205

> <Gold.PLP.PLP>
-93.4410

> <Gold.PLP.part.hbond>
-9.3807

> <Gold.PLP.part.metal>
0.0000

> <Gold.PLP.part.buried>
11.8785

> <Gold.PLP.part.nonpolar>
-96.0913

> <Gold.PLP.part.repulsive>
0.0623

> <Gold.PLP.ligand.clash>
0.0000

> <Gold.PLP.ligand.torsion>
1.8094

> <Gold.PLP.Chemscore.Hbond>
0.6858

> <Gold.PLP.Chemscore.CHOScore>
0.0000

> <Gold.PLP.Chemscore.Metal>
0.0000

> <Gold.Chemscore.Hbonds>
donor molecule, donor type, donor heavy atom, donor atom, acceptor molecule, acceptor atom, score
      L1  H    29    59       P1  1931  0.23
      L1  H    30    60       P1   854  0.01
      P1  H  1247  3847       L1    34  0.45

> <Gold.PLP.Chemscore.Internal.Correction>
0.5983

> <Gold.Protein.RotatedTorsions>
[ 3525  925  924  922 ] final   75.18 input   59.99 | X-H torsion
[ 3781 1176 1175 1172 ] final   52.20 input   60.00 | X-H torsion
[ 4531 1957 1955 1953 ] final -105.52 input   60.00 | X-H torsion
[ 3847 1247 1246 1244 ] final  -82.90 input   60.00 | X-H torsion
[ 4507 1931 1930 1928 ] final -132.41 input   60.00 | X-H torsion
[ 3677 1070 1069 1066 ] final  112.28 input   60.00 | X-H torsion

> <Gold.Protein.ActiveResidues>
 GLY266  PHE267  PRO268  GLU269  MET310  HIS334  ASP335  TRP336  GLY337  GLY338 
 MET339  LEU340  TRP342  TYR343  LEU358  ASN359  THR360  PRO361  ILE363  ALA365 
 MET369  SER370  PRO371  LEU372  GLU373  SER374  ILE375  LYS376  ALA377  ASN378 
 VAL380  PHE381  ASP382  TYR383  GLN384  PHE387  GLN388  LEU397  SER407  LEU408 
 PHE409  ARG410  LEU417  MET419  LEU428  PHE429  PHE459  TRP465  TYR466  ASN468 
 MET469  GLU470  ASN472  TRP473  ALA476  ASP496  PHE497  VAL498  LEU499  MET503 
 HIS524  TRP525 

> <Gold.Protein.RotatedAtoms>
   -2.5858  -29.9559  -30.8128 H   0  0  0  0  0  0  0  0  0  0  0  0  # atno 3525 bound_to 925 
  -11.6880  -22.1816  -30.5444 H   0  0  0  0  0  0  0  0  0  0  0  0  # atno 3677 bound_to 1070
  -10.6744  -37.4477  -32.8837 H   0  0  0  0  0  0  0  0  0  0  0  0  # atno 3781 bound_to 1176
  -15.9564  -27.5531  -37.4037 H   0  0  0  0  0  0  0  0  0  0  0  0  # atno 3847 bound_to 1247
  -13.3781  -24.3218  -40.4803 H   0  0  0  0  0  0  0  0  0  0  0  0  # atno 4507 bound_to 1931
   -1.3986  -32.6335  -36.9686 H   0  0  0  0  0  0  0  0  0  0  0  0  # atno 4531 bound_to 1957
   -3.7720  -29.5357  -29.7811 LP  0  0  0  0  0  0  0  0  0  0  0  0  # atno 5201 bound_to 925 
   -2.3876  -30.1911  -29.2148 LP  0  0  0  0  0  0  0  0  0  0  0  0  # atno 5202 bound_to 925 
  -10.1278  -36.6014  -34.1616 LP  0  0  0  0  0  0  0  0  0  0  0  0  # atno 5205 bound_to 1176
   -9.3041  -36.5800  -32.7517 LP  0  0  0  0  0  0  0  0  0  0  0  0  # atno 5206 bound_to 1176
   -2.1472  -34.0734  -36.8487 LP  0  0  0  0  0  0  0  0  0  0  0  0  # atno 5213 bound_to 1957
   -2.9960  -32.6907  -36.6635 LP  0  0  0  0  0  0  0  0  0  0  0  0  # atno 5214 bound_to 1957
  -14.4279  -27.7267  -37.9345 LP  0  0  0  0  0  0  0  0  0  0  0  0  # atno 5227 bound_to 1247
  -15.1747  -28.9610  -37.1693 LP  0  0  0  0  0  0  0  0  0  0  0  0  # atno 5228 bound_to 1247
  -12.4287  -24.0459  -39.1878 LP  0  0  0  0  0  0  0  0  0  0  0  0  # atno 5245 bound_to 1931
  -13.3858  -25.3682  -39.2341 LP  0  0  0  0  0  0  0  0  0  0  0  0  # atno 5246 bound_to 1931
  -12.7990  -23.3636  -30.6743 LP  0  0  0  0  0  0  0  0  0  0  0  0  # atno 5265 bound_to 1070
  -11.3689  -23.4942  -31.4518 LP  0  0  0  0  0  0  0  0  0  0  0  0  # atno 5266 bound_to 1070

$$$$
EZ_20|Lisa_paper2_min|sdf|8|dock9
  -GOLD-  10202014353D 1   1.00000     0.00000

 60 63  0  0  0  0  0  0  0  0  1 V2000
   -3.0345  -29.8279  -33.3981 C   0  0  0  0  0  0  0  0  0  0  0  0
   -3.2717  -31.1967  -33.5050 C   0  0  0  0  0  0  0  0  0  0  0  0
   -4.0693  -28.9071  -33.5861 C   0  0  0  0  0  0  0  0  0  0  0  0
   -4.5469  -31.6902  -33.8022 C   0  0  0  0  0  0  0  0  0  0  0  0
  -11.4496  -26.9925  -36.8612 C   0  0  0  0  0  0  0  0  0  0  0  0
  -11.4988  -25.3046  -35.1333 C   0  0  0  0  0  0  0  0  0  0  0  0
  -16.6620  -23.3363  -39.4259 C   0  0  0  0  0  0  0  0  0  0  0  0
  -10.4970  -27.7076  -36.1356 C   0  0  0  0  0  0  0  0  0  0  0  0
  -10.5461  -26.0199  -34.4076 C   0  0  0  0  0  0  0  0  0  0  0  0
  -18.0099  -23.1625  -39.7396 C   0  0  0  0  0  0  0  0  0  0  0  0
  -17.2788  -24.7076  -37.5349 C   0  0  0  0  0  0  0  0  0  0  0  0
   -5.3571  -29.3859  -33.8857 C   0  0  0  0  0  0  0  0  0  0  0  0
   -5.5794  -30.7596  -33.9893 C   0  0  0  0  0  0  0  0  0  0  0  0
  -11.9506  -25.7909  -36.3601 C   0  0  0  0  0  0  0  0  0  0  0  0
  -16.2964  -24.1088  -38.3236 C   0  0  0  0  0  0  0  0  0  0  0  0
  -10.0453  -27.2214  -34.9087 C   0  0  0  0  0  0  0  0  0  0  0  0
  -18.9924  -23.7612  -38.9510 C   0  0  0  0  0  0  0  0  0  0  0  0
  -18.6268  -24.5338  -37.8486 C   0  0  0  0  0  0  0  0  0  0  0  0
   -7.4246  -29.5939  -34.3441 C   0  0  0  0  0  0  0  0  0  0  0  0
   -7.6489  -32.0660  -34.4918 C   0  0  0  0  0  0  0  0  0  0  0  0
  -14.2983  -25.1848  -37.1631 C   0  0  0  0  0  0  0  0  0  0  0  0
   -8.2288  -34.7171  -35.4976 C   0  0  0  0  0  0  0  0  0  0  0  0
   -6.4146  -35.4463  -33.9207 C   0  0  0  0  0  0  0  0  0  0  0  0
   -8.4594  -34.2938  -33.0274 C   0  0  0  0  0  0  0  0  0  0  0  0
   -8.8352  -29.2506  -34.6375 C   0  0  0  0  0  0  0  0  0  0  0  0
   -7.4866  -34.3954  -34.2013 C   0  0  0  0  0  0  0  0  0  0  0  0
   -6.5103  -28.6830  -34.1088 N   0  0  0  0  0  0  0  0  0  0  0  0
   -6.9312  -30.8821  -34.2881 N   0  0  0  0  0  0  0  0  0  0  0  0
  -12.9033  -25.0754  -37.0859 N   0  0  0  0  0  0  0  0  0  0  0  0
  -14.9264  -24.2857  -38.0056 N   0  0  0  0  0  0  0  0  0  0  0  0
   -8.8410  -32.0501  -34.7504 O   0  0  0  0  0  0  0  0  0  0  0  0
   -9.1106  -27.9230  -34.1967 O   0  0  0  0  0  0  0  0  0  0  0  0
   -6.8256  -33.1361  -34.3556 O   0  0  0  0  0  0  0  0  0  0  0  0
  -15.0462  -26.2857  -36.1291 S   0  0  0  0  0  0  0  0  0  0  0  0
  -20.6448  -23.5058  -39.3895 Cl  0  0  0  0  0  0  0  0  0  0  0  0
  -19.7975  -25.2990  -36.8323 Cl  0  0  0  0  0  0  0  0  0  0  0  0
   -2.0347  -29.4707  -33.1663 H   0  0  0  0  0  0  0  0  0  0  0  0
   -2.4520  -31.8950  -33.3554 H   0  0  0  0  0  0  0  0  0  0  0  0
   -3.8770  -27.8420  -33.5016 H   0  0  0  0  0  0  0  0  0  0  0  0
   -4.7051  -32.7593  -33.8799 H   0  0  0  0  0  0  0  0  0  0  0  0
  -11.7947  -27.3809  -37.8161 H   0  0  0  0  0  0  0  0  0  0  0  0
  -11.8820  -24.3694  -34.7330 H   0  0  0  0  0  0  0  0  0  0  0  0
  -15.9043  -22.8666  -40.0480 H   0  0  0  0  0  0  0  0  0  0  0  0
  -10.1106  -28.6431  -36.5312 H   0  0  0  0  0  0  0  0  0  0  0  0
  -10.1981  -25.6358  -33.4525 H   0  0  0  0  0  0  0  0  0  0  0  0
  -18.2764  -22.5583  -40.6033 H   0  0  0  0  0  0  0  0  0  0  0  0
  -16.9874  -25.3081  -36.6754 H   0  0  0  0  0  0  0  0  0  0  0  0
   -8.9991  -33.9652  -35.7024 H   0  0  0  0  0  0  0  0  0  0  0  0
   -7.5468  -34.7584  -36.3532 H   0  0  0  0  0  0  0  0  0  0  0  0
   -8.7483  -35.6793  -35.4223 H   0  0  0  0  0  0  0  0  0  0  0  0
   -5.8796  -35.2195  -32.9915 H   0  0  0  0  0  0  0  0  0  0  0  0
   -5.6608  -35.4568  -34.7163 H   0  0  0  0  0  0  0  0  0  0  0  0
   -6.8445  -36.4497  -33.8372 H   0  0  0  0  0  0  0  0  0  0  0  0
   -7.9274  -34.0630  -32.0973 H   0  0  0  0  0  0  0  0  0  0  0  0
   -9.2143  -33.5186  -33.1951 H   0  0  0  0  0  0  0  0  0  0  0  0
   -8.9716  -35.2485  -32.8618 H   0  0  0  0  0  0  0  0  0  0  0  0
   -9.0562  -29.3073  -35.7161 H   0  0  0  0  0  0  0  0  0  0  0  0
   -9.5347  -29.9354  -34.1307 H   0  0  0  0  0  0  0  0  0  0  0  0
  -12.5367  -24.3015  -37.6533 H   0  0  0  0  0  0  0  0  0  0  0  0
  -14.3184  -23.5679  -38.3920 H   0  0  0  0  0  0  0  0  0  0  0  0
  1  2  2  0  0  0  0
  1  3  1  0  0  0  0
  2  4  1  0  0  0  0
  3 12  2  0  0  0  0
  4 13  2  0  0  0  0
  5  8  1  0  0  0  0
  5 14  2  0  0  0  0
  6  9  2  0  0  0  0
  6 14  1  0  0  0  0
  7 10  1  0  0  0  0
  7 15  2  0  0  0  0
  8 16  2  0  0  0  0
  9 16  1  0  0  0  0
 10 17  2  0  0  0  0
 11 15  1  0  0  0  0
 11 18  2  0  0  0  0
 12 13  1  0  0  0  0
 12 27  1  0  0  0  0
 13 28  1  0  0  0  0
 14 29  1  0  0  0  0
 15 30  1  0  0  0  0
 16 32  1  0  0  0  0
 17 18  1  0  0  0  0
 17 35  1  0  0  0  0
 18 36  1  0  0  0  0
 19 25  1  0  0  0  0
 19 27  2  0  0  0  0
 19 28  1  0  0  0  0
 20 28  1  0  0  0  0
 20 31  2  0  0  0  0
 20 33  1  0  0  0  0
 21 29  1  0  0  0  0
 21 30  1  0  0  0  0
 21 34  2  0  0  0  0
 22 26  1  0  0  0  0
 23 26  1  0  0  0  0
 24 26  1  0  0  0  0
 25 32  1  0  0  0  0
 26 33  1  0  0  0  0
  1 37  1  0  0  0  0
  2 38  1  0  0  0  0
  3 39  1  0  0  0  0
  4 40  1  0  0  0  0
  5 41  1  0  0  0  0
  6 42  1  0  0  0  0
  7 43  1  0  0  0  0
  8 44  1  0  0  0  0
  9 45  1  0  0  0  0
 10 46  1  0  0  0  0
 11 47  1  0  0  0  0
 22 48  1  0  0  0  0
 22 49  1  0  0  0  0
 22 50  1  0  0  0  0
 23 51  1  0  0  0  0
 23 52  1  0  0  0  0
 23 53  1  0  0  0  0
 24 54  1  0  0  0  0
 24 55  1  0  0  0  0
 24 56  1  0  0  0  0
 25 57  1  0  0  0  0
 25 58  1  0  0  0  0
 29 59  1  0  0  0  0
 30 60  1  0  0  0  0
M  END
> <Name>
EZ_20

> <SourceTag>
EZ_20

> <Activity_FLAP>
100

> <Activity_sEH>
19.1

> <Gold.Version>
5.2

> <Gold.Id.Protein>
6HGV|6HGV_protein|mol2

> <Gold.PLP.Fitness>
93.7118

> <Gold.PLP.PLP>
-93.5527

> <Gold.PLP.part.hbond>
-8.3647

> <Gold.PLP.part.metal>
0.0000

> <Gold.PLP.part.buried>
9.0073

> <Gold.PLP.part.nonpolar>
-93.8068

> <Gold.PLP.part.repulsive>
0.0572

> <Gold.PLP.ligand.clash>
1.1642

> <Gold.PLP.ligand.torsion>
1.5906

> <Gold.PLP.Chemscore.Hbond>
0.6933

> <Gold.PLP.Chemscore.CHOScore>
0.0000

> <Gold.PLP.Chemscore.Metal>
0.0000

> <Gold.Chemscore.Hbonds>
donor molecule, donor type, donor heavy atom, donor atom, acceptor molecule, acceptor atom, score
      L1  H    29    59       P1  1931  0.41
      P1  H  1247  3847       L1    34  0.28

> <Gold.PLP.Chemscore.Internal.Correction>
0.5983

> <Gold.Protein.RotatedTorsions>
[ 3525  925  924  922 ] final  -29.44 input   59.99 | X-H torsion
[ 3781 1176 1175 1172 ] final -150.11 input   60.00 | X-H torsion
[ 4531 1957 1955 1953 ] final -157.99 input   60.00 | X-H torsion
[ 3847 1247 1246 1244 ] final  -67.48 input   60.00 | X-H torsion
[ 4507 1931 1930 1928 ] final -119.16 input   60.00 | X-H torsion
[ 3677 1070 1069 1066 ] final  -65.25 input   60.00 | X-H torsion

> <Gold.Protein.ActiveResidues>
 GLY266  PHE267  PRO268  GLU269  MET310  HIS334  ASP335  TRP336  GLY337  GLY338 
 MET339  LEU340  TRP342  TYR343  LEU358  ASN359  THR360  PRO361  ILE363  ALA365 
 MET369  SER370  PRO371  LEU372  GLU373  SER374  ILE375  LYS376  ALA377  ASN378 
 VAL380  PHE381  ASP382  TYR383  GLN384  PHE387  GLN388  LEU397  SER407  LEU408 
 PHE409  ARG410  LEU417  MET419  LEU428  PHE429  PHE459  TRP465  TYR466  ASN468 
 MET469  GLU470  ASN472  TRP473  ALA476  ASP496  PHE497  VAL498  LEU499  MET503 
 HIS524  TRP525 

> <Gold.Protein.RotatedAtoms>
   -3.7645  -29.5136  -30.0314 H   0  0  0  0  0  0  0  0  0  0  0  0  # atno 3525 bound_to 925 
  -12.2486  -23.8382  -31.2122 H   0  0  0  0  0  0  0  0  0  0  0  0  # atno 3677 bound_to 1070
   -9.2663  -36.3481  -33.3113 H   0  0  0  0  0  0  0  0  0  0  0  0  # atno 3781 bound_to 1176
  -16.0425  -27.7601  -37.2907 H   0  0  0  0  0  0  0  0  0  0  0  0  # atno 3847 bound_to 1247
  -13.4955  -24.5025  -40.4639 H   0  0  0  0  0  0  0  0  0  0  0  0  # atno 4507 bound_to 1931
   -1.3176  -33.4566  -36.9982 H   0  0  0  0  0  0  0  0  0  0  0  0  # atno 4531 bound_to 1957
   -2.5882  -30.1158  -29.0819 LP  0  0  0  0  0  0  0  0  0  0  0  0  # atno 5201 bound_to 925 
   -2.3843  -30.0565  -30.7010 LP  0  0  0  0  0  0  0  0  0  0  0  0  # atno 5202 bound_to 925 
  -10.2553  -37.3228  -32.4628 LP  0  0  0  0  0  0  0  0  0  0  0  0  # atno 5205 bound_to 1176
  -10.5946  -36.9659  -34.0198 LP  0  0  0  0  0  0  0  0  0  0  0  0  # atno 5206 bound_to 1176
   -2.8936  -33.7331  -36.7010 LP  0  0  0  0  0  0  0  0  0  0  0  0  # atno 5213 bound_to 1957
   -2.3312  -32.2021  -36.7814 LP  0  0  0  0  0  0  0  0  0  0  0  0  # atno 5214 bound_to 1957
  -14.5759  -27.5227  -37.9545 LP  0  0  0  0  0  0  0  0  0  0  0  0  # atno 5227 bound_to 1247
  -14.9399  -28.9566  -37.2631 LP  0  0  0  0  0  0  0  0  0  0  0  0  # atno 5228 bound_to 1247
  -12.4452  -23.9212  -39.3654 LP  0  0  0  0  0  0  0  0  0  0  0  0  # atno 5245 bound_to 1931
  -13.2510  -25.3110  -39.0731 LP  0  0  0  0  0  0  0  0  0  0  0  0  # atno 5246 bound_to 1931
  -11.0972  -22.6913  -31.1281 LP  0  0  0  0  0  0  0  0  0  0  0  0  # atno 5265 bound_to 1070
  -12.5062  -22.4982  -30.3255 LP  0  0  0  0  0  0  0  0  0  0  0  0  # atno 5266 bound_to 1070

$$$$
EZ_20|Lisa_paper2_min|sdf|8|dock7
  -GOLD-  10202014353D 1   1.00000     0.00000

 60 63  0  0  0  0  0  0  0  0  1 V2000
  -10.7598  -33.9882  -35.1334 C   0  0  0  0  0  0  0  0  0  0  0  0
   -9.4203  -34.3227  -34.9460 C   0  0  0  0  0  0  0  0  0  0  0  0
  -11.1587  -32.6502  -35.2024 C   0  0  0  0  0  0  0  0  0  0  0  0
   -8.4371  -33.3347  -34.8219 C   0  0  0  0  0  0  0  0  0  0  0  0
  -12.9368  -25.8578  -34.9301 C   0  0  0  0  0  0  0  0  0  0  0  0
  -12.1055  -26.8927  -36.9488 C   0  0  0  0  0  0  0  0  0  0  0  0
  -18.5173  -25.1740  -36.7132 C   0  0  0  0  0  0  0  0  0  0  0  0
  -11.8583  -26.3816  -34.2174 C   0  0  0  0  0  0  0  0  0  0  0  0
  -11.0269  -27.4165  -36.2360 C   0  0  0  0  0  0  0  0  0  0  0  0
  -19.8974  -24.9831  -36.7789 C   0  0  0  0  0  0  0  0  0  0  0  0
  -18.2734  -24.1613  -38.8931 C   0  0  0  0  0  0  0  0  0  0  0  0
  -10.1836  -31.6446  -35.0793 C   0  0  0  0  0  0  0  0  0  0  0  0
   -8.8459  -31.9950  -34.8922 C   0  0  0  0  0  0  0  0  0  0  0  0
  -13.0605  -26.1134  -36.2959 C   0  0  0  0  0  0  0  0  0  0  0  0
  -17.7053  -24.7631  -37.7702 C   0  0  0  0  0  0  0  0  0  0  0  0
  -10.9033  -27.1609  -34.8704 C   0  0  0  0  0  0  0  0  0  0  0  0
  -20.4657  -24.3814  -37.9017 C   0  0  0  0  0  0  0  0  0  0  0  0
  -19.6536  -23.9705  -38.9588 C   0  0  0  0  0  0  0  0  0  0  0  0
   -9.1259  -29.8024  -34.9538 C   0  0  0  0  0  0  0  0  0  0  0  0
   -6.7925  -30.5968  -34.6259 C   0  0  0  0  0  0  0  0  0  0  0  0
  -15.5169  -25.5826  -36.7522 C   0  0  0  0  0  0  0  0  0  0  0  0
   -4.3008  -30.9568  -35.7819 C   0  0  0  0  0  0  0  0  0  0  0  0
   -4.2873  -31.0405  -33.2714 C   0  0  0  0  0  0  0  0  0  0  0  0
   -4.2002  -33.1736  -34.5944 C   0  0  0  0  0  0  0  0  0  0  0  0
   -8.8438  -28.3486  -34.9302 C   0  0  0  0  0  0  0  0  0  0  0  0
   -4.7400  -31.7449  -34.5487 C   0  0  0  0  0  0  0  0  0  0  0  0
  -10.3354  -30.2847  -35.1142 N   0  0  0  0  0  0  0  0  0  0  0  0
   -8.1666  -30.7851  -34.8122 N   0  0  0  0  0  0  0  0  0  0  0  0
  -14.1392  -25.5896  -37.0089 N   0  0  0  0  0  0  0  0  0  0  0  0
  -16.3027  -24.9566  -37.7027 N   0  0  0  0  0  0  0  0  0  0  0  0
   -6.3057  -29.4796  -34.5712 O   0  0  0  0  0  0  0  0  0  0  0  0
   -9.8451  -27.6749  -34.1711 O   0  0  0  0  0  0  0  0  0  0  0  0
   -6.1694  -31.7984  -34.5279 O   0  0  0  0  0  0  0  0  0  0  0  0
  -16.0308  -26.2013  -35.2711 S   0  0  0  0  0  0  0  0  0  0  0  0
  -22.1818  -24.1757  -37.9247 Cl  0  0  0  0  0  0  0  0  0  0  0  0
  -20.2985  -23.2212  -40.3772 Cl  0  0  0  0  0  0  0  0  0  0  0  0
  -11.5036  -34.7748  -35.2269 H   0  0  0  0  0  0  0  0  0  0  0  0
   -9.1324  -35.3698  -34.8947 H   0  0  0  0  0  0  0  0  0  0  0  0
  -12.2043  -32.3971  -35.3483 H   0  0  0  0  0  0  0  0  0  0  0  0
   -7.4022  -33.6212  -34.6766 H   0  0  0  0  0  0  0  0  0  0  0  0
  -13.6751  -25.2517  -34.4112 H   0  0  0  0  0  0  0  0  0  0  0  0
  -12.1916  -27.0985  -38.0128 H   0  0  0  0  0  0  0  0  0  0  0  0
  -18.0845  -25.6425  -35.8329 H   0  0  0  0  0  0  0  0  0  0  0  0
  -11.7675  -26.1790  -33.1537 H   0  0  0  0  0  0  0  0  0  0  0  0
  -10.2862  -28.0229  -36.7503 H   0  0  0  0  0  0  0  0  0  0  0  0
  -20.5148  -25.3082  -35.9451 H   0  0  0  0  0  0  0  0  0  0  0  0
  -17.6348  -23.8440  -39.7152 H   0  0  0  0  0  0  0  0  0  0  0  0
   -4.6237  -31.4592  -36.7007 H   0  0  0  0  0  0  0  0  0  0  0  0
   -4.7101  -29.9413  -35.7785 H   0  0  0  0  0  0  0  0  0  0  0  0
   -3.2080  -30.8894  -35.8342 H   0  0  0  0  0  0  0  0  0  0  0  0
   -4.6003  -31.6025  -32.3841 H   0  0  0  0  0  0  0  0  0  0  0  0
   -4.7484  -30.0497  -33.1879 H   0  0  0  0  0  0  0  0  0  0  0  0
   -3.1996  -30.9205  -33.2401 H   0  0  0  0  0  0  0  0  0  0  0  0
   -4.5151  -33.7392  -33.7099 H   0  0  0  0  0  0  0  0  0  0  0  0
   -4.5452  -33.7067  -35.4863 H   0  0  0  0  0  0  0  0  0  0  0  0
   -3.1042  -33.1765  -34.5891 H   0  0  0  0  0  0  0  0  0  0  0  0
   -7.8630  -28.1275  -34.4781 H   0  0  0  0  0  0  0  0  0  0  0  0
   -8.8325  -27.9196  -35.9456 H   0  0  0  0  0  0  0  0  0  0  0  0
  -13.8965  -25.0865  -37.8709 H   0  0  0  0  0  0  0  0  0  0  0  0
  -15.7847  -24.4697  -38.4299 H   0  0  0  0  0  0  0  0  0  0  0  0
  1  2  2  0  0  0  0
  1  3  1  0  0  0  0
  2  4  1  0  0  0  0
  3 12  2  0  0  0  0
  4 13  2  0  0  0  0
  5  8  1  0  0  0  0
  5 14  2  0  0  0  0
  6  9  2  0  0  0  0
  6 14  1  0  0  0  0
  7 10  1  0  0  0  0
  7 15  2  0  0  0  0
  8 16  2  0  0  0  0
  9 16  1  0  0  0  0
 10 17  2  0  0  0  0
 11 15  1  0  0  0  0
 11 18  2  0  0  0  0
 12 13  1  0  0  0  0
 12 27  1  0  0  0  0
 13 28  1  0  0  0  0
 14 29  1  0  0  0  0
 15 30  1  0  0  0  0
 16 32  1  0  0  0  0
 17 18  1  0  0  0  0
 17 35  1  0  0  0  0
 18 36  1  0  0  0  0
 19 25  1  0  0  0  0
 19 27  2  0  0  0  0
 19 28  1  0  0  0  0
 20 28  1  0  0  0  0
 20 31  2  0  0  0  0
 20 33  1  0  0  0  0
 21 29  1  0  0  0  0
 21 30  1  0  0  0  0
 21 34  2  0  0  0  0
 22 26  1  0  0  0  0
 23 26  1  0  0  0  0
 24 26  1  0  0  0  0
 25 32  1  0  0  0  0
 26 33  1  0  0  0  0
  1 37  1  0  0  0  0
  2 38  1  0  0  0  0
  3 39  1  0  0  0  0
  4 40  1  0  0  0  0
  5 41  1  0  0  0  0
  6 42  1  0  0  0  0
  7 43  1  0  0  0  0
  8 44  1  0  0  0  0
  9 45  1  0  0  0  0
 10 46  1  0  0  0  0
 11 47  1  0  0  0  0
 22 48  1  0  0  0  0
 22 49  1  0  0  0  0
 22 50  1  0  0  0  0
 23 51  1  0  0  0  0
 23 52  1  0  0  0  0
 23 53  1  0  0  0  0
 24 54  1  0  0  0  0
 24 55  1  0  0  0  0
 24 56  1  0  0  0  0
 25 57  1  0  0  0  0
 25 58  1  0  0  0  0
 29 59  1  0  0  0  0
 30 60  1  0  0  0  0
M  END
> <Name>
EZ_20

> <SourceTag>
EZ_20

> <Activity_FLAP>
100

> <Activity_sEH>
19.1

> <Gold.Version>
5.2

> <Gold.Id.Protein>
6HGV|6HGV_protein|mol2

> <Gold.PLP.Fitness>
93.4009

> <Gold.PLP.PLP>
-91.1909

> <Gold.PLP.part.hbond>
-6.4277

> <Gold.PLP.part.metal>
0.0000

> <Gold.PLP.part.buried>
6.3389

> <Gold.PLP.part.nonpolar>
-91.1482

> <Gold.PLP.part.repulsive>
0.0563

> <Gold.PLP.ligand.clash>
1.4714

> <Gold.PLP.ligand.torsion>
1.0597

> <Gold.PLP.Chemscore.Hbond>
1.2404

> <Gold.PLP.Chemscore.CHOScore>
0.0000

> <Gold.PLP.Chemscore.Metal>
0.0000

> <Gold.Chemscore.Hbonds>
donor molecule, donor type, donor heavy atom, donor atom, acceptor molecule, acceptor atom, score
      L1  H    29    59       P1  1931  0.84
      P1  H  1256  3854       L1    27  0.40

> <Gold.PLP.Chemscore.Internal.Correction>
0.5983

> <Gold.Protein.RotatedTorsions>
[ 3525  925  924  922 ] final   24.31 input   59.99 | X-H torsion
[ 3781 1176 1175 1172 ] final  127.19 input   60.00 | X-H torsion
[ 4531 1957 1955 1953 ] final   48.44 input   60.00 | X-H torsion
[ 3847 1247 1246 1244 ] final -173.08 input   60.00 | X-H torsion
[ 4507 1931 1930 1928 ] final -159.21 input   60.00 | X-H torsion
[ 3677 1070 1069 1066 ] final  102.24 input   60.00 | X-H torsion

> <Gold.Protein.ActiveResidues>
 GLY266  PHE267  PRO268  GLU269  MET310  HIS334  ASP335  TRP336  GLY337  GLY338 
 MET339  LEU340  TRP342  TYR343  LEU358  ASN359  THR360  PRO361  ILE363  ALA365 
 MET369  SER370  PRO371  LEU372  GLU373  SER374  ILE375  LYS376  ALA377  ASN378 
 VAL380  PHE381  ASP382  TYR383  GLN384  PHE387  GLN388  LEU397  SER407  LEU408 
 PHE409  ARG410  LEU417  MET419  LEU428  PHE429  PHE459  TRP465  TYR466  ASN468 
 MET469  GLU470  ASN472  TRP473  ALA476  ASP496  PHE497  VAL498  LEU499  MET503 
 HIS524  TRP525 

> <Gold.Protein.RotatedAtoms>
   -3.3225  -29.6412  -30.7419 H   0  0  0  0  0  0  0  0  0  0  0  0  # atno 3525 bound_to 925 
  -11.8349  -22.1812  -30.4720 H   0  0  0  0  0  0  0  0  0  0  0  0  # atno 3677 bound_to 1070
   -9.7452  -37.0144  -32.3857 H   0  0  0  0  0  0  0  0  0  0  0  0  # atno 3781 bound_to 1176
  -14.7580  -27.3737  -37.9427 H   0  0  0  0  0  0  0  0  0  0  0  0  # atno 3847 bound_to 1247
  -13.0970  -24.0077  -40.3778 H   0  0  0  0  0  0  0  0  0  0  0  0  # atno 4507 bound_to 1931
   -3.0940  -33.2307  -36.6566 H   0  0  0  0  0  0  0  0  0  0  0  0  # atno 4531 bound_to 1957
   -3.3675  -29.7725  -29.1205 LP  0  0  0  0  0  0  0  0  0  0  0  0  # atno 5201 bound_to 925 
   -2.0501  -30.2712  -29.9467 LP  0  0  0  0  0  0  0  0  0  0  0  0  # atno 5202 bound_to 925 
  -10.8281  -37.2908  -33.5685 LP  0  0  0  0  0  0  0  0  0  0  0  0  # atno 5205 bound_to 1176
   -9.5394  -36.3270  -33.8463 LP  0  0  0  0  0  0  0  0  0  0  0  0  # atno 5206 bound_to 1176
   -1.8006  -32.2696  -36.8834 LP  0  0  0  0  0  0  0  0  0  0  0  0  # atno 5213 bound_to 1957
   -1.6354  -33.8931  -36.9429 LP  0  0  0  0  0  0  0  0  0  0  0  0  # atno 5214 bound_to 1957
  -14.7364  -28.8954  -37.3664 LP  0  0  0  0  0  0  0  0  0  0  0  0  # atno 5227 bound_to 1247
  -16.0730  -27.9730  -37.1946 LP  0  0  0  0  0  0  0  0  0  0  0  0  # atno 5228 bound_to 1247
  -12.4981  -24.3762  -38.9103 LP  0  0  0  0  0  0  0  0  0  0  0  0  # atno 5245 bound_to 1931
  -13.5995  -25.3543  -39.6150 LP  0  0  0  0  0  0  0  0  0  0  0  0  # atno 5246 bound_to 1931
  -12.7540  -23.4909  -30.7689 LP  0  0  0  0  0  0  0  0  0  0  0  0  # atno 5265 bound_to 1070
  -11.2660  -23.3672  -31.4301 LP  0  0  0  0  0  0  0  0  0  0  0  0  # atno 5266 bound_to 1070

$$$$
EZ_20|Lisa_paper2_min|sdf|8|dock2
  -GOLD-  10202014343D 1   1.00000     0.00000

 60 63  0  0  0  0  0  0  0  0  1 V2000
   -4.1553  -31.5239  -35.1800 C   0  0  0  0  0  0  0  0  0  0  0  0
   -4.4270  -32.3506  -34.0919 C   0  0  0  0  0  0  0  0  0  0  0  0
   -5.0845  -30.5676  -35.5997 C   0  0  0  0  0  0  0  0  0  0  0  0
   -5.6324  -32.2500  -33.3883 C   0  0  0  0  0  0  0  0  0  0  0  0
  -11.8867  -27.0316  -36.7209 C   0  0  0  0  0  0  0  0  0  0  0  0
  -11.4007  -25.0332  -35.4530 C   0  0  0  0  0  0  0  0  0  0  0  0
  -16.7335  -23.2227  -39.6642 C   0  0  0  0  0  0  0  0  0  0  0  0
  -10.9565  -27.7403  -35.9606 C   0  0  0  0  0  0  0  0  0  0  0  0
  -10.4705  -25.7420  -34.6926 C   0  0  0  0  0  0  0  0  0  0  0  0
  -18.0734  -23.0394  -40.0060 C   0  0  0  0  0  0  0  0  0  0  0  0
  -17.4000  -24.5747  -37.7761 C   0  0  0  0  0  0  0  0  0  0  0  0
   -6.3013  -30.4532  -34.9040 C   0  0  0  0  0  0  0  0  0  0  0  0
   -6.5591  -31.2881  -33.8160 C   0  0  0  0  0  0  0  0  0  0  0  0
  -12.1088  -25.6780  -36.4671 C   0  0  0  0  0  0  0  0  0  0  0  0
  -16.3969  -23.9903  -38.5493 C   0  0  0  0  0  0  0  0  0  0  0  0
  -10.2484  -27.0955  -34.9463 C   0  0  0  0  0  0  0  0  0  0  0  0
  -19.0766  -23.6237  -39.2329 C   0  0  0  0  0  0  0  0  0  0  0  0
  -18.7399  -24.3913  -38.1179 C   0  0  0  0  0  0  0  0  0  0  0  0
   -8.2338  -29.8983  -34.2076 C   0  0  0  0  0  0  0  0  0  0  0  0
   -8.5340  -31.4592  -32.2953 C   0  0  0  0  0  0  0  0  0  0  0  0
  -14.4338  -25.0621  -37.3266 C   0  0  0  0  0  0  0  0  0  0  0  0
   -7.8705  -31.2639  -29.6160 C   0  0  0  0  0  0  0  0  0  0  0  0
   -9.4657  -33.1329  -30.1370 C   0  0  0  0  0  0  0  0  0  0  0  0
   -7.0318  -33.6319  -29.7692 C   0  0  0  0  0  0  0  0  0  0  0  0
   -9.5346  -29.1987  -34.0964 C   0  0  0  0  0  0  0  0  0  0  0  0
   -8.0386  -32.6162  -30.3071 C   0  0  0  0  0  0  0  0  0  0  0  0
   -7.3490  -29.6019  -35.1298 N   0  0  0  0  0  0  0  0  0  0  0  0
   -7.8220  -30.9161  -33.3707 N   0  0  0  0  0  0  0  0  0  0  0  0
  -13.0391  -24.9691  -37.2276 N   0  0  0  0  0  0  0  0  0  0  0  0
  -15.0351  -24.1769  -38.2028 N   0  0  0  0  0  0  0  0  0  0  0  0
   -9.6431  -31.0492  -31.9955 O   0  0  0  0  0  0  0  0  0  0  0  0
   -9.3358  -27.7907  -34.2003 O   0  0  0  0  0  0  0  0  0  0  0  0
   -7.8071  -32.4433  -31.7082 O   0  0  0  0  0  0  0  0  0  0  0  0
  -15.2144  -26.1262  -36.2783 S   0  0  0  0  0  0  0  0  0  0  0  0
  -20.7177  -23.3570  -39.7060 Cl  0  0  0  0  0  0  0  0  0  0  0  0
  -19.9374  -25.1389  -37.1197 Cl  0  0  0  0  0  0  0  0  0  0  0  0
   -3.2114  -31.6225  -35.7092 H   0  0  0  0  0  0  0  0  0  0  0  0
   -3.6901  -33.0880  -33.7830 H   0  0  0  0  0  0  0  0  0  0  0  0
   -4.8661  -29.9272  -36.4486 H   0  0  0  0  0  0  0  0  0  0  0  0
   -5.8195  -32.9049  -32.5456 H   0  0  0  0  0  0  0  0  0  0  0  0
  -12.4330  -27.5442  -37.5086 H   0  0  0  0  0  0  0  0  0  0  0  0
  -11.5655  -23.9788  -35.2463 H   0  0  0  0  0  0  0  0  0  0  0  0
  -15.9595  -22.7642  -40.2744 H   0  0  0  0  0  0  0  0  0  0  0  0
  -10.7880  -28.7945  -36.1630 H   0  0  0  0  0  0  0  0  0  0  0  0
   -9.9219  -25.2341  -33.9040 H   0  0  0  0  0  0  0  0  0  0  0  0
  -18.3172  -22.4392  -40.8791 H   0  0  0  0  0  0  0  0  0  0  0  0
  -17.1312  -25.1714  -36.9067 H   0  0  0  0  0  0  0  0  0  0  0  0
   -6.8475  -30.8896  -29.7357 H   0  0  0  0  0  0  0  0  0  0  0  0
   -8.5632  -30.5169  -30.0172 H   0  0  0  0  0  0  0  0  0  0  0  0
   -8.0431  -31.3519  -28.5372 H   0  0  0  0  0  0  0  0  0  0  0  0
   -9.5909  -34.1031  -30.6313 H   0  0  0  0  0  0  0  0  0  0  0  0
  -10.1856  -32.4524  -30.6058 H   0  0  0  0  0  0  0  0  0  0  0  0
   -9.7316  -33.2450  -29.0809 H   0  0  0  0  0  0  0  0  0  0  0  0
   -7.1522  -34.6021  -30.2648 H   0  0  0  0  0  0  0  0  0  0  0  0
   -6.0007  -33.2944  -29.9162 H   0  0  0  0  0  0  0  0  0  0  0  0
   -7.1909  -33.8094  -28.6994 H   0  0  0  0  0  0  0  0  0  0  0  0
  -10.2359  -29.5062  -34.8894 H   0  0  0  0  0  0  0  0  0  0  0  0
  -10.0283  -29.4080  -33.1333 H   0  0  0  0  0  0  0  0  0  0  0  0
  -12.6523  -24.2149  -37.8080 H   0  0  0  0  0  0  0  0  0  0  0  0
  -14.4108  -23.4772  -38.5966 H   0  0  0  0  0  0  0  0  0  0  0  0
  1  2  2  0  0  0  0
  1  3  1  0  0  0  0
  2  4  1  0  0  0  0
  3 12  2  0  0  0  0
  4 13  2  0  0  0  0
  5  8  1  0  0  0  0
  5 14  2  0  0  0  0
  6  9  2  0  0  0  0
  6 14  1  0  0  0  0
  7 10  1  0  0  0  0
  7 15  2  0  0  0  0
  8 16  2  0  0  0  0
  9 16  1  0  0  0  0
 10 17  2  0  0  0  0
 11 15  1  0  0  0  0
 11 18  2  0  0  0  0
 12 13  1  0  0  0  0
 12 27  1  0  0  0  0
 13 28  1  0  0  0  0
 14 29  1  0  0  0  0
 15 30  1  0  0  0  0
 16 32  1  0  0  0  0
 17 18  1  0  0  0  0
 17 35  1  0  0  0  0
 18 36  1  0  0  0  0
 19 25  1  0  0  0  0
 19 27  2  0  0  0  0
 19 28  1  0  0  0  0
 20 28  1  0  0  0  0
 20 31  2  0  0  0  0
 20 33  1  0  0  0  0
 21 29  1  0  0  0  0
 21 30  1  0  0  0  0
 21 34  2  0  0  0  0
 22 26  1  0  0  0  0
 23 26  1  0  0  0  0
 24 26  1  0  0  0  0
 25 32  1  0  0  0  0
 26 33  1  0  0  0  0
  1 37  1  0  0  0  0
  2 38  1  0  0  0  0
  3 39  1  0  0  0  0
  4 40  1  0  0  0  0
  5 41  1  0  0  0  0
  6 42  1  0  0  0  0
  7 43  1  0  0  0  0
  8 44  1  0  0  0  0
  9 45  1  0  0  0  0
 10 46  1  0  0  0  0
 11 47  1  0  0  0  0
 22 48  1  0  0  0  0
 22 49  1  0  0  0  0
 22 50  1  0  0  0  0
 23 51  1  0  0  0  0
 23 52  1  0  0  0  0
 23 53  1  0  0  0  0
 24 54  1  0  0  0  0
 24 55  1  0  0  0  0
 24 56  1  0  0  0  0
 25 57  1  0  0  0  0
 25 58  1  0  0  0  0
 29 59  1  0  0  0  0
 30 60  1  0  0  0  0
M  END
> <Name>
EZ_20

> <SourceTag>
EZ_20

> <Activity_FLAP>
100

> <Activity_sEH>
19.1

> <Gold.Version>
5.2

> <Gold.Id.Protein>
6HGV|6HGV_protein|mol2

> <Gold.PLP.Fitness>
91.5174

> <Gold.PLP.PLP>
-89.7990

> <Gold.PLP.part.hbond>
-7.4901

> <Gold.PLP.part.metal>
0.0000

> <Gold.PLP.part.buried>
12.5986

> <Gold.PLP.part.nonpolar>
-94.7007

> <Gold.PLP.part.repulsive>
0.0339

> <Gold.PLP.ligand.clash>
0.0000

> <Gold.PLP.ligand.torsion>
1.9028

> <Gold.PLP.Chemscore.Hbond>
0.8460

> <Gold.PLP.Chemscore.CHOScore>
0.0000

> <Gold.PLP.Chemscore.Metal>
0.0000

> <Gold.Chemscore.Hbonds>
donor molecule, donor type, donor heavy atom, donor atom, acceptor molecule, acceptor atom, score
      L1  H    29    59       P1  1931  0.46
      P1  H  1247  3847       L1    34  0.39

> <Gold.PLP.Chemscore.Internal.Correction>
0.7955

> <Gold.Protein.RotatedTorsions>
[ 3525  925  924  922 ] final -109.44 input   59.99 | X-H torsion
[ 3781 1176 1175 1172 ] final  111.69 input   60.00 | X-H torsion
[ 4531 1957 1955 1953 ] final    4.74 input   60.00 | X-H torsion
[ 3847 1247 1246 1244 ] final  -71.31 input   60.00 | X-H torsion
[ 4507 1931 1930 1928 ] final -137.51 input   60.00 | X-H torsion
[ 3677 1070 1069 1066 ] final  139.12 input   60.00 | X-H torsion

> <Gold.Protein.ActiveResidues>
 GLY266  PHE267  PRO268  GLU269  MET310  HIS334  ASP335  TRP336  GLY337  GLY338 
 MET339  LEU340  TRP342  TYR343  LEU358  ASN359  THR360  PRO361  ILE363  ALA365 
 MET369  SER370  PRO371  LEU372  GLU373  SER374  ILE375  LYS376  ALA377  ASN378 
 VAL380  PHE381  ASP382  TYR383  GLN384  PHE387  GLN388  LEU397  SER407  LEU408 
 PHE409  ARG410  LEU417  MET419  LEU428  PHE429  PHE459  TRP465  TYR466  ASN468 
 MET469  GLU470  ASN472  TRP473  ALA476  ASP496  PHE497  VAL498  LEU499  MET503 
 HIS524  TRP525 

> <Gold.Protein.RotatedAtoms>
   -3.1766  -29.8606  -29.0402 H   0  0  0  0  0  0  0  0  0  0  0  0  # atno 3525 bound_to 925 
  -11.3461  -22.3049  -30.7827 H   0  0  0  0  0  0  0  0  0  0  0  0  # atno 3677 bound_to 1070
   -9.9533  -37.1572  -32.3752 H   0  0  0  0  0  0  0  0  0  0  0  0  # atno 3781 bound_to 1176
  -16.0267  -27.7059  -37.3177 H   0  0  0  0  0  0  0  0  0  0  0  0  # atno 3847 bound_to 1247
  -13.3281  -24.2555  -40.4746 H   0  0  0  0  0  0  0  0  0  0  0  0  # atno 4507 bound_to 1931
   -2.9060  -32.5601  -36.6807 H   0  0  0  0  0  0  0  0  0  0  0  0  # atno 4531 bound_to 1957
   -2.0693  -30.2424  -30.1699 LP  0  0  0  0  0  0  0  0  0  0  0  0  # atno 5201 bound_to 925 
   -3.4953  -29.5804  -30.6112 LP  0  0  0  0  0  0  0  0  0  0  0  0  # atno 5202 bound_to 925 
  -10.7677  -37.1697  -33.7840 LP  0  0  0  0  0  0  0  0  0  0  0  0  # atno 5205 bound_to 1176
   -9.3903  -36.3042  -33.6414 LP  0  0  0  0  0  0  0  0  0  0  0  0  # atno 5206 bound_to 1176
   -1.3211  -32.7722  -36.9833 LP  0  0  0  0  0  0  0  0  0  0  0  0  # atno 5213 bound_to 1957
   -2.3042  -34.0657  -36.8187 LP  0  0  0  0  0  0  0  0  0  0  0  0  # atno 5214 bound_to 1957
  -14.5345  -27.5702  -37.9526 LP  0  0  0  0  0  0  0  0  0  0  0  0  # atno 5227 bound_to 1247
  -14.9973  -28.9637  -37.2379 LP  0  0  0  0  0  0  0  0  0  0  0  0  # atno 5228 bound_to 1247
  -12.4314  -24.1019  -39.1254 LP  0  0  0  0  0  0  0  0  0  0  0  0  # atno 5245 bound_to 1931
  -13.4334  -25.3791  -39.3023 LP  0  0  0  0  0  0  0  0  0  0  0  0  # atno 5246 bound_to 1931
  -12.7906  -22.9815  -30.4608 LP  0  0  0  0  0  0  0  0  0  0  0  0  # atno 5265 bound_to 1070
  -11.7216  -23.7520  -31.4252 LP  0  0  0  0  0  0  0  0  0  0  0  0  # atno 5266 bound_to 1070

$$$$
EZ_20|Lisa_paper2_min|sdf|8|dock3
  -GOLD-  10202014343D 1   1.00000     0.00000

 60 63  0  0  0  0  0  0  0  0  1 V2000
   -3.8458  -31.8022  -34.9041 C   0  0  0  0  0  0  0  0  0  0  0  0
   -4.1896  -32.5660  -33.7907 C   0  0  0  0  0  0  0  0  0  0  0  0
   -4.7442  -30.8737  -35.4380 C   0  0  0  0  0  0  0  0  0  0  0  0
   -5.4386  -32.4281  -33.1748 C   0  0  0  0  0  0  0  0  0  0  0  0
  -11.2107  -25.2043  -35.3027 C   0  0  0  0  0  0  0  0  0  0  0  0
  -11.6540  -27.0745  -36.7666 C   0  0  0  0  0  0  0  0  0  0  0  0
  -16.5706  -23.2723  -39.4662 C   0  0  0  0  0  0  0  0  0  0  0  0
  -10.2590  -25.9630  -34.6215 C   0  0  0  0  0  0  0  0  0  0  0  0
  -10.7021  -27.8332  -36.0854 C   0  0  0  0  0  0  0  0  0  0  0  0
  -17.9083  -23.1230  -39.8320 C   0  0  0  0  0  0  0  0  0  0  0  0
  -17.2346  -24.6628  -37.6054 C   0  0  0  0  0  0  0  0  0  0  0  0
   -6.0038  -30.7226  -34.8315 C   0  0  0  0  0  0  0  0  0  0  0  0
   -6.3338  -31.4945  -33.7168 C   0  0  0  0  0  0  0  0  0  0  0  0
  -11.9083  -25.7600  -36.3753 C   0  0  0  0  0  0  0  0  0  0  0  0
  -16.2338  -24.0422  -38.3530 C   0  0  0  0  0  0  0  0  0  0  0  0
  -10.0046  -27.2775  -35.0129 C   0  0  0  0  0  0  0  0  0  0  0  0
  -18.9093  -23.7435  -39.0845 C   0  0  0  0  0  0  0  0  0  0  0  0
  -18.5724  -24.5134  -37.9711 C   0  0  0  0  0  0  0  0  0  0  0  0
   -7.9772  -30.1334  -34.2965 C   0  0  0  0  0  0  0  0  0  0  0  0
   -8.4046  -31.5830  -32.3218 C   0  0  0  0  0  0  0  0  0  0  0  0
  -14.2416  -25.1656  -37.2274 C   0  0  0  0  0  0  0  0  0  0  0  0
   -9.4885  -33.0994  -30.1103 C   0  0  0  0  0  0  0  0  0  0  0  0
   -7.0846  -33.6329  -29.6139 C   0  0  0  0  0  0  0  0  0  0  0  0
   -7.8628  -31.2449  -29.6077 C   0  0  0  0  0  0  0  0  0  0  0  0
   -9.2815  -29.4316  -34.3112 C   0  0  0  0  0  0  0  0  0  0  0  0
   -8.0426  -32.6232  -30.2424 C   0  0  0  0  0  0  0  0  0  0  0  0
   -7.0333  -29.8880  -35.1739 N   0  0  0  0  0  0  0  0  0  0  0  0
   -7.6227  -31.1006  -33.3774 N   0  0  0  0  0  0  0  0  0  0  0  0
  -12.8604  -25.0013  -37.0567 N   0  0  0  0  0  0  0  0  0  0  0  0
  -14.8741  -24.1943  -37.9821 N   0  0  0  0  0  0  0  0  0  0  0  0
   -9.5305  -31.1591  -32.1195 O   0  0  0  0  0  0  0  0  0  0  0  0
   -9.0708  -28.0219  -34.3446 O   0  0  0  0  0  0  0  0  0  0  0  0
   -7.7192  -32.5302  -31.6329 O   0  0  0  0  0  0  0  0  0  0  0  0
  -14.9802  -26.4269  -36.3884 S   0  0  0  0  0  0  0  0  0  0  0  0
  -20.5479  -23.5177  -39.5865 Cl  0  0  0  0  0  0  0  0  0  0  0  0
  -19.7671  -25.3049  -37.0040 Cl  0  0  0  0  0  0  0  0  0  0  0  0
   -2.8693  -31.9287  -35.3636 H   0  0  0  0  0  0  0  0  0  0  0  0
   -3.4757  -33.2827  -33.3923 H   0  0  0  0  0  0  0  0  0  0  0  0
   -4.4695  -30.2824  -36.3060 H   0  0  0  0  0  0  0  0  0  0  0  0
   -5.6815  -33.0342  -32.3100 H   0  0  0  0  0  0  0  0  0  0  0  0
  -11.4008  -24.1808  -34.9893 H   0  0  0  0  0  0  0  0  0  0  0  0
  -12.1915  -27.5181  -37.6009 H   0  0  0  0  0  0  0  0  0  0  0  0
  -15.7983  -22.7858  -40.0565 H   0  0  0  0  0  0  0  0  0  0  0  0
   -9.7188  -25.5245  -33.7869 H   0  0  0  0  0  0  0  0  0  0  0  0
  -10.5085  -28.8567  -36.3949 H   0  0  0  0  0  0  0  0  0  0  0  0
  -18.1524  -22.5205  -40.7034 H   0  0  0  0  0  0  0  0  0  0  0  0
  -16.9657  -25.2611  -36.7371 H   0  0  0  0  0  0  0  0  0  0  0  0
  -10.1792  -32.3774  -30.5601 H   0  0  0  0  0  0  0  0  0  0  0  0
   -9.6387  -34.0711  -30.5920 H   0  0  0  0  0  0  0  0  0  0  0  0
   -9.7764  -33.1874  -29.0563 H   0  0  0  0  0  0  0  0  0  0  0  0
   -6.0460  -33.2952  -29.7064 H   0  0  0  0  0  0  0  0  0  0  0  0
   -7.1423  -34.5986  -30.1290 H   0  0  0  0  0  0  0  0  0  0  0  0
   -7.3043  -33.7921  -28.5532 H   0  0  0  0  0  0  0  0  0  0  0  0
   -6.8257  -30.9030  -29.7024 H   0  0  0  0  0  0  0  0  0  0  0  0
   -8.5163  -30.4990  -30.0716 H   0  0  0  0  0  0  0  0  0  0  0  0
   -8.0803  -31.2789  -28.5341 H   0  0  0  0  0  0  0  0  0  0  0  0
   -9.8879  -29.7094  -35.1889 H   0  0  0  0  0  0  0  0  0  0  0  0
   -9.8822  -29.6704  -33.4183 H   0  0  0  0  0  0  0  0  0  0  0  0
  -12.5081  -24.1431  -37.4978 H   0  0  0  0  0  0  0  0  0  0  0  0
  -14.2872  -23.4039  -38.2373 H   0  0  0  0  0  0  0  0  0  0  0  0
  1  2  2  0  0  0  0
  1  3  1  0  0  0  0
  2  4  1  0  0  0  0
  3 12  2  0  0  0  0
  4 13  2  0  0  0  0
  5  8  1  0  0  0  0
  5 14  2  0  0  0  0
  6  9  2  0  0  0  0
  6 14  1  0  0  0  0
  7 10  1  0  0  0  0
  7 15  2  0  0  0  0
  8 16  2  0  0  0  0
  9 16  1  0  0  0  0
 10 17  2  0  0  0  0
 11 15  1  0  0  0  0
 11 18  2  0  0  0  0
 12 13  1  0  0  0  0
 12 27  1  0  0  0  0
 13 28  1  0  0  0  0
 14 29  1  0  0  0  0
 15 30  1  0  0  0  0
 16 32  1  0  0  0  0
 17 18  1  0  0  0  0
 17 35  1  0  0  0  0
 18 36  1  0  0  0  0
 19 25  1  0  0  0  0
 19 27  2  0  0  0  0
 19 28  1  0  0  0  0
 20 28  1  0  0  0  0
 20 31  2  0  0  0  0
 20 33  1  0  0  0  0
 21 29  1  0  0  0  0
 21 30  1  0  0  0  0
 21 34  2  0  0  0  0
 22 26  1  0  0  0  0
 23 26  1  0  0  0  0
 24 26  1  0  0  0  0
 25 32  1  0  0  0  0
 26 33  1  0  0  0  0
  1 37  1  0  0  0  0
  2 38  1  0  0  0  0
  3 39  1  0  0  0  0
  4 40  1  0  0  0  0
  5 41  1  0  0  0  0
  6 42  1  0  0  0  0
  7 43  1  0  0  0  0
  8 44  1  0  0  0  0
  9 45  1  0  0  0  0
 10 46  1  0  0  0  0
 11 47  1  0  0  0  0
 22 48  1  0  0  0  0
 22 49  1  0  0  0  0
 22 50  1  0  0  0  0
 23 51  1  0  0  0  0
 23 52  1  0  0  0  0
 23 53  1  0  0  0  0
 24 54  1  0  0  0  0
 24 55  1  0  0  0  0
 24 56  1  0  0  0  0
 25 57  1  0  0  0  0
 25 58  1  0  0  0  0
 29 59  1  0  0  0  0
 30 60  1  0  0  0  0
M  END
> <Name>
EZ_20

> <SourceTag>
EZ_20

> <Activity_FLAP>
100

> <Activity_sEH>
19.1

> <Gold.Version>
5.2

> <Gold.Id.Protein>
6HGV|6HGV_protein|mol2

> <Gold.PLP.Fitness>
91.3296

> <Gold.PLP.PLP>
-90.1369

> <Gold.PLP.part.hbond>
-9.1549

> <Gold.PLP.part.metal>
0.0000

> <Gold.PLP.part.buried>
14.6607

> <Gold.PLP.part.nonpolar>
-95.2491

> <Gold.PLP.part.repulsive>
0.0413

> <Gold.PLP.ligand.clash>
0.0000

> <Gold.PLP.ligand.torsion>
1.7412

> <Gold.PLP.Chemscore.Hbond>
0.6601

> <Gold.PLP.Chemscore.CHOScore>
0.0000

> <Gold.PLP.Chemscore.Metal>
0.0000

> <Gold.Chemscore.Hbonds>
donor molecule, donor type, donor heavy atom, donor atom, acceptor molecule, acceptor atom, score
      L1  H    29    59       P1  1931  0.24
      L1  H    30    60       P1   854  0.01
      P1  H  1247  3847       L1    34  0.41

> <Gold.PLP.Chemscore.Internal.Correction>
0.7293

> <Gold.Protein.RotatedTorsions>
[ 3525  925  924  922 ] final  -61.69 input   59.99 | X-H torsion
[ 3781 1176 1175 1172 ] final  179.34 input   60.00 | X-H torsion
[ 4531 1957 1955 1953 ] final  -28.13 input   60.00 | X-H torsion
[ 3847 1247 1246 1244 ] final  -83.44 input   60.00 | X-H torsion
[ 4507 1931 1930 1928 ] final -118.58 input   60.00 | X-H torsion
[ 3677 1070 1069 1066 ] final -131.07 input   60.00 | X-H torsion

> <Gold.Protein.ActiveResidues>
 GLY266  PHE267  PRO268  GLU269  MET310  HIS334  ASP335  TRP336  GLY337  GLY338 
 MET339  LEU340  TRP342  TYR343  LEU358  ASN359  THR360  PRO361  ILE363  ALA365 
 MET369  SER370  PRO371  LEU372  GLU373  SER374  ILE375  LYS376  ALA377  ASN378 
 VAL380  PHE381  ASP382  TYR383  GLN384  PHE387  GLN388  LEU397  SER407  LEU408 
 PHE409  ARG410  LEU417  MET419  LEU428  PHE429  PHE459  TRP465  TYR466  ASN468 
 MET469  GLU470  ASN472  TRP473  ALA476  ASP496  PHE497  VAL498  LEU499  MET503 
 HIS524  TRP525 

> <Gold.Protein.RotatedAtoms>
   -3.6956  -29.5902  -29.5217 H   0  0  0  0  0  0  0  0  0  0  0  0  # atno 3525 bound_to 925 
  -11.3358  -23.4513  -31.4407 H   0  0  0  0  0  0  0  0  0  0  0  0  # atno 3677 bound_to 1070
   -9.2743  -36.5258  -32.8512 H   0  0  0  0  0  0  0  0  0  0  0  0  # atno 3781 bound_to 1176
  -15.9523  -27.5464  -37.4079 H   0  0  0  0  0  0  0  0  0  0  0  0  # atno 3847 bound_to 1247
  -13.5002  -24.5105  -40.4622 H   0  0  0  0  0  0  0  0  0  0  0  0  # atno 4507 bound_to 1931
   -2.4837  -32.2490  -36.7556 H   0  0  0  0  0  0  0  0  0  0  0  0  # atno 4531 bound_to 1957
   -2.2112  -30.2492  -29.4200 LP  0  0  0  0  0  0  0  0  0  0  0  0  # atno 5201 bound_to 925 
   -2.8306  -29.8459  -30.8761 LP  0  0  0  0  0  0  0  0  0  0  0  0  # atno 5202 bound_to 925 
  -10.6161  -37.4438  -32.7822 LP  0  0  0  0  0  0  0  0  0  0  0  0  # atno 5205 bound_to 1176
  -10.2257  -36.6659  -34.1639 LP  0  0  0  0  0  0  0  0  0  0  0  0  # atno 5206 bound_to 1176
   -1.2684  -33.3028  -37.0025 LP  0  0  0  0  0  0  0  0  0  0  0  0  # atno 5213 bound_to 1957
   -2.7822  -33.8484  -36.7241 LP  0  0  0  0  0  0  0  0  0  0  0  0  # atno 5214 bound_to 1957
  -14.4236  -27.7345  -37.9332 LP  0  0  0  0  0  0  0  0  0  0  0  0  # atno 5227 bound_to 1247
  -15.1831  -28.9600  -37.1664 LP  0  0  0  0  0  0  0  0  0  0  0  0  # atno 5228 bound_to 1247
  -12.4467  -23.9165  -39.3735 LP  0  0  0  0  0  0  0  0  0  0  0  0  # atno 5245 bound_to 1931
  -13.2449  -25.3076  -39.0667 LP  0  0  0  0  0  0  0  0  0  0  0  0  # atno 5246 bound_to 1931
  -11.7357  -22.1717  -30.5183 LP  0  0  0  0  0  0  0  0  0  0  0  0  # atno 5265 bound_to 1070
  -12.7868  -23.4074  -30.7052 LP  0  0  0  0  0  0  0  0  0  0  0  0  # atno 5266 bound_to 1070

$$$$
EZ_20|Lisa_paper2_min|sdf|8|dock5
  -GOLD-  10202014353D 1   1.00000     0.00000

 60 63  0  0  0  0  0  0  0  0  1 V2000
   -3.0007  -30.1117  -33.0791 C   0  0  0  0  0  0  0  0  0  0  0  0
   -3.3753  -31.4536  -33.0649 C   0  0  0  0  0  0  0  0  0  0  0  0
   -3.9081  -29.1212  -33.4662 C   0  0  0  0  0  0  0  0  0  0  0  0
   -4.6652  -31.8500  -33.4354 C   0  0  0  0  0  0  0  0  0  0  0  0
  -11.1049  -25.0670  -35.3657 C   0  0  0  0  0  0  0  0  0  0  0  0
  -11.6009  -26.9977  -36.7309 C   0  0  0  0  0  0  0  0  0  0  0  0
  -16.7371  -23.5111  -39.3423 C   0  0  0  0  0  0  0  0  0  0  0  0
  -10.0944  -25.7816  -34.7223 C   0  0  0  0  0  0  0  0  0  0  0  0
  -10.5903  -27.7122  -36.0874 C   0  0  0  0  0  0  0  0  0  0  0  0
  -18.0939  -23.4202  -39.6525 C   0  0  0  0  0  0  0  0  0  0  0  0
  -17.2811  -24.7000  -37.3107 C   0  0  0  0  0  0  0  0  0  0  0  0
   -5.2085  -29.5021  -33.8419 C   0  0  0  0  0  0  0  0  0  0  0  0
   -5.5691  -30.8501  -33.8223 C   0  0  0  0  0  0  0  0  0  0  0  0
  -11.8582  -25.6751  -36.3701 C   0  0  0  0  0  0  0  0  0  0  0  0
  -16.3307  -24.1510  -38.1714 C   0  0  0  0  0  0  0  0  0  0  0  0
   -9.8371  -27.1041  -35.0832 C   0  0  0  0  0  0  0  0  0  0  0  0
  -19.0445  -23.9691  -38.7918 C   0  0  0  0  0  0  0  0  0  0  0  0
  -18.6381  -24.6090  -37.6208 C   0  0  0  0  0  0  0  0  0  0  0  0
   -7.2372  -29.5568  -34.4817 C   0  0  0  0  0  0  0  0  0  0  0  0
   -7.7157  -31.9953  -34.3905 C   0  0  0  0  0  0  0  0  0  0  0  0
  -14.2479  -25.1838  -37.1262 C   0  0  0  0  0  0  0  0  0  0  0  0
   -6.7605  -35.5056  -34.0148 C   0  0  0  0  0  0  0  0  0  0  0  0
   -8.9610  -34.4060  -33.5064 C   0  0  0  0  0  0  0  0  0  0  0  0
   -8.0506  -34.3592  -35.8468 C   0  0  0  0  0  0  0  0  0  0  0  0
   -8.5701  -29.1123  -34.9502 C   0  0  0  0  0  0  0  0  0  0  0  0
   -7.6962  -34.3481  -34.3605 C   0  0  0  0  0  0  0  0  0  0  0  0
   -6.2536  -28.7194  -34.2526 N   0  0  0  0  0  0  0  0  0  0  0  0
   -6.8942  -30.8723  -34.2412 N   0  0  0  0  0  0  0  0  0  0  0  0
  -12.8689  -24.9606  -37.0136 N   0  0  0  0  0  0  0  0  0  0  0  0
  -14.9516  -24.2438  -37.8570 N   0  0  0  0  0  0  0  0  0  0  0  0
   -8.8711  -31.8919  -34.7680 O   0  0  0  0  0  0  0  0  0  0  0  0
   -8.8457  -27.8052  -34.4519 O   0  0  0  0  0  0  0  0  0  0  0  0
   -7.0294  -33.1185  -34.0603 O   0  0  0  0  0  0  0  0  0  0  0  0
  -14.8969  -26.4709  -36.2530 S   0  0  0  0  0  0  0  0  0  0  0  0
  -20.7100  -23.8211  -39.2300 Cl  0  0  0  0  0  0  0  0  0  0  0  0
  -19.7680  -25.3066  -36.5137 Cl  0  0  0  0  0  0  0  0  0  0  0  0
   -1.9927  -29.8305  -32.7867 H   0  0  0  0  0  0  0  0  0  0  0  0
   -2.6532  -32.2074  -32.7609 H   0  0  0  0  0  0  0  0  0  0  0  0
   -3.6090  -28.0776  -33.4753 H   0  0  0  0  0  0  0  0  0  0  0  0
   -4.9314  -32.9002  -33.4158 H   0  0  0  0  0  0  0  0  0  0  0  0
  -11.2967  -24.0368  -35.0766 H   0  0  0  0  0  0  0  0  0  0  0  0
  -12.1815  -27.4819  -37.5120 H   0  0  0  0  0  0  0  0  0  0  0  0
  -16.0045  -23.0814  -40.0207 H   0  0  0  0  0  0  0  0  0  0  0  0
   -9.5110  -25.3023  -33.9408 H   0  0  0  0  0  0  0  0  0  0  0  0
  -10.3947  -28.7423  -36.3729 H   0  0  0  0  0  0  0  0  0  0  0  0
  -18.3924  -22.9192  -40.5701 H   0  0  0  0  0  0  0  0  0  0  0  0
  -16.9580  -25.1968  -36.3980 H   0  0  0  0  0  0  0  0  0  0  0  0
   -5.8515  -35.4676  -34.6257 H   0  0  0  0  0  0  0  0  0  0  0  0
   -6.4709  -35.4887  -32.9591 H   0  0  0  0  0  0  0  0  0  0  0  0
   -7.2360  -36.4699  -34.2279 H   0  0  0  0  0  0  0  0  0  0  0  0
   -9.6352  -33.5774  -33.7512 H   0  0  0  0  0  0  0  0  0  0  0  0
   -8.7185  -34.3029  -32.4426 H   0  0  0  0  0  0  0  0  0  0  0  0
   -9.5020  -35.3470  -33.6491 H   0  0  0  0  0  0  0  0  0  0  0  0
   -8.7218  -33.5290  -36.0950 H   0  0  0  0  0  0  0  0  0  0  0  0
   -7.1573  -34.2811  -36.4749 H   0  0  0  0  0  0  0  0  0  0  0  0
   -8.5844  -35.2786  -36.1133 H   0  0  0  0  0  0  0  0  0  0  0  0
   -8.6295  -29.0802  -36.0505 H   0  0  0  0  0  0  0  0  0  0  0  0
   -9.3692  -29.7892  -34.6059 H   0  0  0  0  0  0  0  0  0  0  0  0
  -12.5719  -24.0905  -37.4718 H   0  0  0  0  0  0  0  0  0  0  0  0
  -14.4097  -23.4307  -38.1390 H   0  0  0  0  0  0  0  0  0  0  0  0
  1  2  2  0  0  0  0
  1  3  1  0  0  0  0
  2  4  1  0  0  0  0
  3 12  2  0  0  0  0
  4 13  2  0  0  0  0
  5  8  1  0  0  0  0
  5 14  2  0  0  0  0
  6  9  2  0  0  0  0
  6 14  1  0  0  0  0
  7 10  1  0  0  0  0
  7 15  2  0  0  0  0
  8 16  2  0  0  0  0
  9 16  1  0  0  0  0
 10 17  2  0  0  0  0
 11 15  1  0  0  0  0
 11 18  2  0  0  0  0
 12 13  1  0  0  0  0
 12 27  1  0  0  0  0
 13 28  1  0  0  0  0
 14 29  1  0  0  0  0
 15 30  1  0  0  0  0
 16 32  1  0  0  0  0
 17 18  1  0  0  0  0
 17 35  1  0  0  0  0
 18 36  1  0  0  0  0
 19 25  1  0  0  0  0
 19 27  2  0  0  0  0
 19 28  1  0  0  0  0
 20 28  1  0  0  0  0
 20 31  2  0  0  0  0
 20 33  1  0  0  0  0
 21 29  1  0  0  0  0
 21 30  1  0  0  0  0
 21 34  2  0  0  0  0
 22 26  1  0  0  0  0
 23 26  1  0  0  0  0
 24 26  1  0  0  0  0
 25 32  1  0  0  0  0
 26 33  1  0  0  0  0
  1 37  1  0  0  0  0
  2 38  1  0  0  0  0
  3 39  1  0  0  0  0
  4 40  1  0  0  0  0
  5 41  1  0  0  0  0
  6 42  1  0  0  0  0
  7 43  1  0  0  0  0
  8 44  1  0  0  0  0
  9 45  1  0  0  0  0
 10 46  1  0  0  0  0
 11 47  1  0  0  0  0
 22 48  1  0  0  0  0
 22 49  1  0  0  0  0
 22 50  1  0  0  0  0
 23 51  1  0  0  0  0
 23 52  1  0  0  0  0
 23 53  1  0  0  0  0
 24 54  1  0  0  0  0
 24 55  1  0  0  0  0
 24 56  1  0  0  0  0
 25 57  1  0  0  0  0
 25 58  1  0  0  0  0
 29 59  1  0  0  0  0
 30 60  1  0  0  0  0
M  END
> <Name>
EZ_20

> <SourceTag>
EZ_20

> <Activity_FLAP>
100

> <Activity_sEH>
19.1

> <Gold.Version>
5.2

> <Gold.Id.Protein>
6HGV|6HGV_protein|mol2

> <Gold.PLP.Fitness>
89.8518

> <Gold.PLP.PLP>
-90.4213

> <Gold.PLP.part.hbond>
-9.4625

> <Gold.PLP.part.metal>
0.0000

> <Gold.PLP.part.buried>
13.3273

> <Gold.PLP.part.nonpolar>
-94.7334

> <Gold.PLP.part.repulsive>
0.0608

> <Gold.PLP.ligand.clash>
1.5051

> <Gold.PLP.ligand.torsion>
1.2906

> <Gold.PLP.Chemscore.Hbond>
0.4482

> <Gold.PLP.Chemscore.CHOScore>
0.0000

> <Gold.PLP.Chemscore.Metal>
0.0000

> <Gold.Chemscore.Hbonds>
donor molecule, donor type, donor heavy atom, donor atom, acceptor molecule, acceptor atom, score
      L1  H    29    59       P1   854  0.13
      P1  H  1247  3847       L1    34  0.31

> <Gold.PLP.Chemscore.Internal.Correction>
0.7293

> <Gold.Protein.RotatedTorsions>
[ 3525  925  924  922 ] final  102.87 input   59.99 | X-H torsion
[ 3781 1176 1175 1172 ] final -104.16 input   60.00 | X-H torsion
[ 4531 1957 1955 1953 ] final -146.18 input   60.00 | X-H torsion
[ 3847 1247 1246 1244 ] final  -68.00 input   60.00 | X-H torsion
[ 4507 1931 1930 1928 ] final  -18.71 input   60.00 | X-H torsion
[ 3677 1070 1069 1066 ] final  -35.70 input   60.00 | X-H torsion

> <Gold.Protein.ActiveResidues>
 GLY266  PHE267  PRO268  GLU269  MET310  HIS334  ASP335  TRP336  GLY337  GLY338 
 MET339  LEU340  TRP342  TYR343  LEU358  ASN359  THR360  PRO361  ILE363  ALA365 
 MET369  SER370  PRO371  LEU372  GLU373  SER374  ILE375  LYS376  ALA377  ASN378 
 VAL380  PHE381  ASP382  TYR383  GLN384  PHE387  GLN388  LEU397  SER407  LEU408 
 PHE409  ARG410  LEU417  MET419  LEU428  PHE429  PHE459  TRP465  TYR466  ASN468 
 MET469  GLU470  ASN472  TRP473  ALA476  ASP496  PHE497  VAL498  LEU499  MET503 
 HIS524  TRP525 

> <Gold.Protein.RotatedAtoms>
   -2.2545  -30.1233  -30.5618 H   0  0  0  0  0  0  0  0  0  0  0  0  # atno 3525 bound_to 925 
  -12.6082  -23.6761  -30.9431 H   0  0  0  0  0  0  0  0  0  0  0  0  # atno 3677 bound_to 1070
   -9.6407  -36.3629  -33.9389 H   0  0  0  0  0  0  0  0  0  0  0  0  # atno 3781 bound_to 1176
  -16.0406  -27.7528  -37.2943 H   0  0  0  0  0  0  0  0  0  0  0  0  # atno 3847 bound_to 1247
  -13.4398  -25.3763  -39.3219 H   0  0  0  0  0  0  0  0  0  0  0  0  # atno 4507 bound_to 1931
   -1.2699  -33.2702  -37.0040 H   0  0  0  0  0  0  0  0  0  0  0  0  # atno 4531 bound_to 1957
   -3.7266  -29.5145  -30.2295 LP  0  0  0  0  0  0  0  0  0  0  0  0  # atno 5201 bound_to 925 
   -2.7665  -30.0437  -29.0192 LP  0  0  0  0  0  0  0  0  0  0  0  0  # atno 5202 bound_to 925 
   -9.6359  -36.9282  -32.4130 LP  0  0  0  0  0  0  0  0  0  0  0  0  # atno 5205 bound_to 1176
  -10.8369  -37.3456  -33.4377 LP  0  0  0  0  0  0  0  0  0  0  0  0  # atno 5206 bound_to 1176
   -2.7579  -33.8688  -36.7291 LP  0  0  0  0  0  0  0  0  0  0  0  0  # atno 5213 bound_to 1957
   -2.5149  -32.2541  -36.7474 LP  0  0  0  0  0  0  0  0  0  0  0  0  # atno 5214 bound_to 1957
  -14.5702  -27.5289  -37.9544 LP  0  0  0  0  0  0  0  0  0  0  0  0  # atno 5227 bound_to 1247
  -14.9476  -28.9578  -37.2596 LP  0  0  0  0  0  0  0  0  0  0  0  0  # atno 5228 bound_to 1247
  -13.3195  -24.2366  -40.4772 LP  0  0  0  0  0  0  0  0  0  0  0  0  # atno 5245 bound_to 1931
  -12.4328  -24.1155  -39.1113 LP  0  0  0  0  0  0  0  0  0  0  0  0  # atno 5246 bound_to 1931
  -11.1359  -23.1157  -31.3508 LP  0  0  0  0  0  0  0  0  0  0  0  0  # atno 5265 bound_to 1070
  -12.1054  -22.2370  -30.3737 LP  0  0  0  0  0  0  0  0  0  0  0  0  # atno 5266 bound_to 1070

$$$$
EZ_20|Lisa_paper2_min|sdf|8|dock6
  -GOLD-  10202014353D 1   1.00000     0.00000

 60 63  0  0  0  0  0  0  0  0  1 V2000
   -4.4964  -30.9217  -35.5671 C   0  0  0  0  0  0  0  0  0  0  0  0
   -4.5241  -31.8092  -34.4933 C   0  0  0  0  0  0  0  0  0  0  0  0
   -5.5895  -30.0932  -35.8369 C   0  0  0  0  0  0  0  0  0  0  0  0
   -5.6412  -31.8983  -33.6553 C   0  0  0  0  0  0  0  0  0  0  0  0
  -11.4057  -25.3317  -35.7945 C   0  0  0  0  0  0  0  0  0  0  0  0
  -12.8700  -27.2533  -35.8179 C   0  0  0  0  0  0  0  0  0  0  0  0
  -17.0296  -23.4382  -39.6272 C   0  0  0  0  0  0  0  0  0  0  0  0
  -10.5267  -26.0118  -34.9517 C   0  0  0  0  0  0  0  0  0  0  0  0
  -11.9909  -27.9334  -34.9750 C   0  0  0  0  0  0  0  0  0  0  0  0
  -18.3548  -23.1748  -39.9734 C   0  0  0  0  0  0  0  0  0  0  0  0
  -17.7793  -24.6348  -37.6668 C   0  0  0  0  0  0  0  0  0  0  0  0
   -6.7206  -30.1701  -35.0049 C   0  0  0  0  0  0  0  0  0  0  0  0
   -6.7335  -31.0636  -33.9331 C   0  0  0  0  0  0  0  0  0  0  0  0
  -12.5775  -25.9525  -36.2277 C   0  0  0  0  0  0  0  0  0  0  0  0
  -16.7418  -24.1682  -38.4740 C   0  0  0  0  0  0  0  0  0  0  0  0
  -10.8192  -27.3127  -34.5420 C   0  0  0  0  0  0  0  0  0  0  0  0
  -19.3924  -23.6414  -39.1663 C   0  0  0  0  0  0  0  0  0  0  0  0
  -19.1046  -24.3713  -38.0130 C   0  0  0  0  0  0  0  0  0  0  0  0
   -8.6155  -29.9111  -34.0722 C   0  0  0  0  0  0  0  0  0  0  0  0
   -8.4750  -31.5528  -32.2098 C   0  0  0  0  0  0  0  0  0  0  0  0
  -14.8564  -25.2408  -37.1353 C   0  0  0  0  0  0  0  0  0  0  0  0
   -6.4146  -33.5776  -29.9701 C   0  0  0  0  0  0  0  0  0  0  0  0
   -7.4948  -31.3341  -29.6396 C   0  0  0  0  0  0  0  0  0  0  0  0
   -8.9224  -33.3680  -30.0049 C   0  0  0  0  0  0  0  0  0  0  0  0
   -9.9770  -29.4038  -33.7847 C   0  0  0  0  0  0  0  0  0  0  0  0
   -7.5978  -32.6857  -30.3432 C   0  0  0  0  0  0  0  0  0  0  0  0
   -7.8933  -29.4675  -35.0735 N   0  0  0  0  0  0  0  0  0  0  0  0
   -7.9742  -30.8849  -33.3329 N   0  0  0  0  0  0  0  0  0  0  0  0
  -13.4568  -25.2724  -37.0706 N   0  0  0  0  0  0  0  0  0  0  0  0
  -15.3948  -24.4362  -38.1231 N   0  0  0  0  0  0  0  0  0  0  0  0
   -9.5867  -31.3108  -31.7695 O   0  0  0  0  0  0  0  0  0  0  0  0
   -9.9568  -27.9799  -33.7150 O   0  0  0  0  0  0  0  0  0  0  0  0
   -7.5576  -32.4420  -31.7524 O   0  0  0  0  0  0  0  0  0  0  0  0
  -15.7051  -26.0602  -35.9317 S   0  0  0  0  0  0  0  0  0  0  0  0
  -21.0130  -23.2796  -39.6469 Cl  0  0  0  0  0  0  0  0  0  0  0  0
  -20.3462  -24.9741  -36.9716 Cl  0  0  0  0  0  0  0  0  0  0  0  0
   -3.6165  -30.8722  -36.2026 H   0  0  0  0  0  0  0  0  0  0  0  0
   -3.6630  -32.4448  -34.3022 H   0  0  0  0  0  0  0  0  0  0  0  0
   -5.5610  -29.4044  -36.6756 H   0  0  0  0  0  0  0  0  0  0  0  0
   -5.6377  -32.5969  -32.8270 H   0  0  0  0  0  0  0  0  0  0  0  0
  -11.1676  -24.3183  -36.1078 H   0  0  0  0  0  0  0  0  0  0  0  0
  -13.7802  -27.7471  -36.1490 H   0  0  0  0  0  0  0  0  0  0  0  0
  -16.2286  -23.0714  -40.2640 H   0  0  0  0  0  0  0  0  0  0  0  0
   -9.6155  -25.5229  -34.6178 H   0  0  0  0  0  0  0  0  0  0  0  0
  -12.2244  -28.9466  -34.6592 H   0  0  0  0  0  0  0  0  0  0  0  0
  -18.5606  -22.6056  -40.8765 H   0  0  0  0  0  0  0  0  0  0  0  0
  -17.5484  -25.2026  -36.7677 H   0  0  0  0  0  0  0  0  0  0  0  0
   -6.4848  -34.5487  -30.4731 H   0  0  0  0  0  0  0  0  0  0  0  0
   -5.4597  -33.1147  -30.2395 H   0  0  0  0  0  0  0  0  0  0  0  0
   -6.4065  -33.7867  -28.8942 H   0  0  0  0  0  0  0  0  0  0  0  0
   -8.3418  -30.6909  -29.9044 H   0  0  0  0  0  0  0  0  0  0  0  0
   -6.5910  -30.7990  -29.9526 H   0  0  0  0  0  0  0  0  0  0  0  0
   -7.4717  -31.4463  -28.5507 H   0  0  0  0  0  0  0  0  0  0  0  0
   -9.7713  -32.7284  -30.2725 H   0  0  0  0  0  0  0  0  0  0  0  0
   -9.0300  -34.3226  -30.5301 H   0  0  0  0  0  0  0  0  0  0  0  0
   -9.0018  -33.5524  -28.9275 H   0  0  0  0  0  0  0  0  0  0  0  0
  -10.6989  -29.6995  -34.5637 H   0  0  0  0  0  0  0  0  0  0  0  0
  -10.3621  -29.7915  -32.8274 H   0  0  0  0  0  0  0  0  0  0  0  0
  -13.0163  -24.6517  -37.7605 H   0  0  0  0  0  0  0  0  0  0  0  0
  -14.7179  -23.8657  -38.6237 H   0  0  0  0  0  0  0  0  0  0  0  0
  1  2  2  0  0  0  0
  1  3  1  0  0  0  0
  2  4  1  0  0  0  0
  3 12  2  0  0  0  0
  4 13  2  0  0  0  0
  5  8  1  0  0  0  0
  5 14  2  0  0  0  0
  6  9  2  0  0  0  0
  6 14  1  0  0  0  0
  7 10  1  0  0  0  0
  7 15  2  0  0  0  0
  8 16  2  0  0  0  0
  9 16  1  0  0  0  0
 10 17  2  0  0  0  0
 11 15  1  0  0  0  0
 11 18  2  0  0  0  0
 12 13  1  0  0  0  0
 12 27  1  0  0  0  0
 13 28  1  0  0  0  0
 14 29  1  0  0  0  0
 15 30  1  0  0  0  0
 16 32  1  0  0  0  0
 17 18  1  0  0  0  0
 17 35  1  0  0  0  0
 18 36  1  0  0  0  0
 19 25  1  0  0  0  0
 19 27  2  0  0  0  0
 19 28  1  0  0  0  0
 20 28  1  0  0  0  0
 20 31  2  0  0  0  0
 20 33  1  0  0  0  0
 21 29  1  0  0  0  0
 21 30  1  0  0  0  0
 21 34  2  0  0  0  0
 22 26  1  0  0  0  0
 23 26  1  0  0  0  0
 24 26  1  0  0  0  0
 25 32  1  0  0  0  0
 26 33  1  0  0  0  0
  1 37  1  0  0  0  0
  2 38  1  0  0  0  0
  3 39  1  0  0  0  0
  4 40  1  0  0  0  0
  5 41  1  0  0  0  0
  6 42  1  0  0  0  0
  7 43  1  0  0  0  0
  8 44  1  0  0  0  0
  9 45  1  0  0  0  0
 10 46  1  0  0  0  0
 11 47  1  0  0  0  0
 22 48  1  0  0  0  0
 22 49  1  0  0  0  0
 22 50  1  0  0  0  0
 23 51  1  0  0  0  0
 23 52  1  0  0  0  0
 23 53  1  0  0  0  0
 24 54  1  0  0  0  0
 24 55  1  0  0  0  0
 24 56  1  0  0  0  0
 25 57  1  0  0  0  0
 25 58  1  0  0  0  0
 29 59  1  0  0  0  0
 30 60  1  0  0  0  0
M  END
> <Name>
EZ_20

> <SourceTag>
EZ_20

> <Activity_FLAP>
100

> <Activity_sEH>
19.1

> <Gold.Version>
5.2

> <Gold.Id.Protein>
6HGV|6HGV_protein|mol2

> <Gold.PLP.Fitness>
87.9145

> <Gold.PLP.PLP>
-86.0630

> <Gold.PLP.part.hbond>
-6.0000

> <Gold.PLP.part.metal>
0.0000

> <Gold.PLP.part.buried>
5.7042

> <Gold.PLP.part.nonpolar>
-86.8828

> <Gold.PLP.part.repulsive>
0.0228

> <Gold.PLP.ligand.clash>
0.0000

> <Gold.PLP.ligand.torsion>
1.4924

> <Gold.PLP.Chemscore.Hbond>
0.8220

> <Gold.PLP.Chemscore.CHOScore>
0.0000

> <Gold.PLP.Chemscore.Metal>
0.0000

> <Gold.Chemscore.Hbonds>
donor molecule, donor type, donor heavy atom, donor atom, acceptor molecule, acceptor atom, score
      L1  H    29    59       P1  1931  0.78
      P1  H  1247  3847       L1    34  0.05

> <Gold.PLP.Chemscore.Internal.Correction>
0.5983

> <Gold.Protein.RotatedTorsions>
[ 3525  925  924  922 ] final  -68.98 input   59.99 | X-H torsion
[ 3781 1176 1175 1172 ] final   74.69 input   60.00 | X-H torsion
[ 4531 1957 1955 1953 ] final -149.41 input   60.00 | X-H torsion
[ 3847 1247 1246 1244 ] final  -44.91 input   60.00 | X-H torsion
[ 4507 1931 1930 1928 ] final -132.74 input   60.00 | X-H torsion
[ 3677 1070 1069 1066 ] final  -36.20 input   60.00 | X-H torsion

> <Gold.Protein.ActiveResidues>
 GLY266  PHE267  PRO268  GLU269  MET310  HIS334  ASP335  TRP336  GLY337  GLY338 
 MET339  LEU340  TRP342  TYR343  LEU358  ASN359  THR360  PRO361  ILE363  ALA365 
 MET369  SER370  PRO371  LEU372  GLU373  SER374  ILE375  LYS376  ALA377  ASN378 
 VAL380  PHE381  ASP382  TYR383  GLN384  PHE387  GLN388  LEU397  SER407  LEU408 
 PHE409  ARG410  LEU417  MET419  LEU428  PHE429  PHE459  TRP465  TYR466  ASN468 
 MET469  GLU470  ASN472  TRP473  ALA476  ASP496  PHE497  VAL498  LEU499  MET503 
 HIS524  TRP525 

> <Gold.Protein.RotatedAtoms>
   -3.6443  -29.6220  -29.4192 H   0  0  0  0  0  0  0  0  0  0  0  0  # atno 3525 bound_to 925 
  -12.6034  -23.6805  -30.9480 H   0  0  0  0  0  0  0  0  0  0  0  0  # atno 3677 bound_to 1070
  -10.4452  -37.3998  -32.6036 H   0  0  0  0  0  0  0  0  0  0  0  0  # atno 3781 bound_to 1176
  -16.0572  -28.1001  -37.1549 H   0  0  0  0  0  0  0  0  0  0  0  0  # atno 3847 bound_to 1247
  -13.3750  -24.3175  -40.4802 H   0  0  0  0  0  0  0  0  0  0  0  0  # atno 4507 bound_to 1931
   -1.2792  -33.3221  -37.0032 H   0  0  0  0  0  0  0  0  0  0  0  0  # atno 4531 bound_to 1957
   -2.1531  -30.2650  -29.5235 LP  0  0  0  0  0  0  0  0  0  0  0  0  # atno 5201 bound_to 925 
   -2.9404  -29.7981  -30.8758 LP  0  0  0  0  0  0  0  0  0  0  0  0  # atno 5202 bound_to 925 
  -10.4247  -36.8144  -34.1218 LP  0  0  0  0  0  0  0  0  0  0  0  0  # atno 5205 bound_to 1176
   -9.2379  -36.4152  -33.0736 LP  0  0  0  0  0  0  0  0  0  0  0  0  # atno 5206 bound_to 1176
   -2.7978  -33.8345  -36.7209 LP  0  0  0  0  0  0  0  0  0  0  0  0  # atno 5213 bound_to 1957
   -2.4657  -32.2361  -36.7564 LP  0  0  0  0  0  0  0  0  0  0  0  0  # atno 5214 bound_to 1957
  -14.8683  -27.2995  -37.9251 LP  0  0  0  0  0  0  0  0  0  0  0  0  # atno 5227 bound_to 1247
  -14.6327  -28.8374  -37.4293 LP  0  0  0  0  0  0  0  0  0  0  0  0  # atno 5228 bound_to 1247
  -12.4287  -24.0493  -39.1837 LP  0  0  0  0  0  0  0  0  0  0  0  0  # atno 5245 bound_to 1931
  -13.3889  -25.3691  -39.2384 LP  0  0  0  0  0  0  0  0  0  0  0  0  # atno 5246 bound_to 1931
  -11.1334  -23.1085  -31.3479 LP  0  0  0  0  0  0  0  0  0  0  0  0  # atno 5265 bound_to 1070
  -12.1127  -22.2399  -30.3717 LP  0  0  0  0  0  0  0  0  0  0  0  0  # atno 5266 bound_to 1070

$$$$
EZ_20|Lisa_paper2_min|sdf|8|dock1
  -GOLD-  10202014343D 1   1.00000     0.00000

 60 63  0  0  0  0  0  0  0  0  1 V2000
   -4.2886  -30.9947  -35.4996 C   0  0  0  0  0  0  0  0  0  0  0  0
   -4.3571  -31.8983  -34.4412 C   0  0  0  0  0  0  0  0  0  0  0  0
   -5.3634  -30.1480  -35.7862 C   0  0  0  0  0  0  0  0  0  0  0  0
   -5.4981  -31.9860  -33.6359 C   0  0  0  0  0  0  0  0  0  0  0  0
  -12.7082  -27.3207  -35.8666 C   0  0  0  0  0  0  0  0  0  0  0  0
  -11.3285  -25.3403  -35.7580 C   0  0  0  0  0  0  0  0  0  0  0  0
  -17.0347  -23.4655  -39.4616 C   0  0  0  0  0  0  0  0  0  0  0  0
  -11.8010  -27.9974  -35.0514 C   0  0  0  0  0  0  0  0  0  0  0  0
  -10.4212  -26.0172  -34.9428 C   0  0  0  0  0  0  0  0  0  0  0  0
  -18.3708  -23.2026  -39.7634 C   0  0  0  0  0  0  0  0  0  0  0  0
  -17.7203  -24.7007  -37.5017 C   0  0  0  0  0  0  0  0  0  0  0  0
   -6.5179  -30.2232  -34.9870 C   0  0  0  0  0  0  0  0  0  0  0  0
   -6.5717  -31.1331  -33.9303 C   0  0  0  0  0  0  0  0  0  0  0  0
  -12.4719  -25.9920  -36.2199 C   0  0  0  0  0  0  0  0  0  0  0  0
  -16.7094  -24.2145  -38.3308 C   0  0  0  0  0  0  0  0  0  0  0  0
  -10.6575  -27.3457  -34.5894 C   0  0  0  0  0  0  0  0  0  0  0  0
  -19.3818  -23.6887  -38.9344 C   0  0  0  0  0  0  0  0  0  0  0  0
  -19.0566  -24.4377  -37.8035 C   0  0  0  0  0  0  0  0  0  0  0  0
   -8.4346  -29.9543  -34.1028 C   0  0  0  0  0  0  0  0  0  0  0  0
   -8.3663  -31.6264  -32.2636 C   0  0  0  0  0  0  0  0  0  0  0  0
  -14.7801  -25.2826  -37.0524 C   0  0  0  0  0  0  0  0  0  0  0  0
   -6.3854  -33.6997  -29.9976 C   0  0  0  0  0  0  0  0  0  0  0  0
   -7.4708  -31.4590  -29.6648 C   0  0  0  0  0  0  0  0  0  0  0  0
   -8.8908  -33.4837  -30.1033 C   0  0  0  0  0  0  0  0  0  0  0  0
   -9.7971  -29.4340  -33.8449 C   0  0  0  0  0  0  0  0  0  0  0  0
   -7.5554  -32.7994  -30.3918 C   0  0  0  0  0  0  0  0  0  0  0  0
   -7.6794  -29.5045  -35.0767 N   0  0  0  0  0  0  0  0  0  0  0  0
   -7.8263  -30.9476  -33.3617 N   0  0  0  0  0  0  0  0  0  0  0  0
  -13.3792  -25.3150  -37.0354 N   0  0  0  0  0  0  0  0  0  0  0  0
  -15.3514  -24.4820  -38.0248 N   0  0  0  0  0  0  0  0  0  0  0  0
   -9.4867  -31.3769  -31.8503 O   0  0  0  0  0  0  0  0  0  0  0  0
   -9.7674  -28.0096  -33.7896 O   0  0  0  0  0  0  0  0  0  0  0  0
   -7.4731  -32.5344  -31.7953 O   0  0  0  0  0  0  0  0  0  0  0  0
  -15.5877  -26.0959  -35.8168 S   0  0  0  0  0  0  0  0  0  0  0  0
  -21.0176  -23.3266  -39.3602 Cl  0  0  0  0  0  0  0  0  0  0  0  0
  -20.2639  -25.0652  -36.7368 Cl  0  0  0  0  0  0  0  0  0  0  0  0
   -3.3908  -30.9466  -36.1098 H   0  0  0  0  0  0  0  0  0  0  0  0
   -3.5096  -32.5478  -34.2366 H   0  0  0  0  0  0  0  0  0  0  0  0
   -5.3030  -29.4467  -36.6127 H   0  0  0  0  0  0  0  0  0  0  0  0
   -5.5262  -32.6973  -32.8189 H   0  0  0  0  0  0  0  0  0  0  0  0
  -13.5961  -27.8383  -36.2207 H   0  0  0  0  0  0  0  0  0  0  0  0
  -11.1340  -24.3051  -36.0270 H   0  0  0  0  0  0  0  0  0  0  0  0
  -16.2546  -23.0834  -40.1151 H   0  0  0  0  0  0  0  0  0  0  0  0
  -11.9906  -29.0323  -34.7796 H   0  0  0  0  0  0  0  0  0  0  0  0
   -9.5323  -25.5040  -34.5861 H   0  0  0  0  0  0  0  0  0  0  0  0
  -18.6059  -22.6184  -40.6497 H   0  0  0  0  0  0  0  0  0  0  0  0
  -17.4603  -25.2833  -36.6201 H   0  0  0  0  0  0  0  0  0  0  0  0
   -6.4426  -34.6628  -30.5172 H   0  0  0  0  0  0  0  0  0  0  0  0
   -5.4221  -33.2349  -30.2316 H   0  0  0  0  0  0  0  0  0  0  0  0
   -6.4096  -33.9252  -28.9252 H   0  0  0  0  0  0  0  0  0  0  0  0
   -8.3083  -30.8098  -29.9447 H   0  0  0  0  0  0  0  0  0  0  0  0
   -6.5571  -30.9213  -29.9428 H   0  0  0  0  0  0  0  0  0  0  0  0
   -7.4801  -31.5877  -28.5777 H   0  0  0  0  0  0  0  0  0  0  0  0
   -9.7302  -32.8381  -30.3860 H   0  0  0  0  0  0  0  0  0  0  0  0
   -8.9845  -34.4300  -30.6459 H   0  0  0  0  0  0  0  0  0  0  0  0
   -9.0023  -33.6843  -29.0316 H   0  0  0  0  0  0  0  0  0  0  0  0
  -10.5073  -29.7325  -34.6336 H   0  0  0  0  0  0  0  0  0  0  0  0
  -10.2021  -29.8087  -32.8906 H   0  0  0  0  0  0  0  0  0  0  0  0
  -12.9621  -24.6978  -37.7427 H   0  0  0  0  0  0  0  0  0  0  0  0
  -14.6917  -23.9143  -38.5509 H   0  0  0  0  0  0  0  0  0  0  0  0
  1  2  2  0  0  0  0
  1  3  1  0  0  0  0
  2  4  1  0  0  0  0
  3 12  2  0  0  0  0
  4 13  2  0  0  0  0
  5  8  1  0  0  0  0
  5 14  2  0  0  0  0
  6  9  2  0  0  0  0
  6 14  1  0  0  0  0
  7 10  1  0  0  0  0
  7 15  2  0  0  0  0
  8 16  2  0  0  0  0
  9 16  1  0  0  0  0
 10 17  2  0  0  0  0
 11 15  1  0  0  0  0
 11 18  2  0  0  0  0
 12 13  1  0  0  0  0
 12 27  1  0  0  0  0
 13 28  1  0  0  0  0
 14 29  1  0  0  0  0
 15 30  1  0  0  0  0
 16 32  1  0  0  0  0
 17 18  1  0  0  0  0
 17 35  1  0  0  0  0
 18 36  1  0  0  0  0
 19 25  1  0  0  0  0
 19 27  2  0  0  0  0
 19 28  1  0  0  0  0
 20 28  1  0  0  0  0
 20 31  2  0  0  0  0
 20 33  1  0  0  0  0
 21 29  1  0  0  0  0
 21 30  1  0  0  0  0
 21 34  2  0  0  0  0
 22 26  1  0  0  0  0
 23 26  1  0  0  0  0
 24 26  1  0  0  0  0
 25 32  1  0  0  0  0
 26 33  1  0  0  0  0
  1 37  1  0  0  0  0
  2 38  1  0  0  0  0
  3 39  1  0  0  0  0
  4 40  1  0  0  0  0
  5 41  1  0  0  0  0
  6 42  1  0  0  0  0
  7 43  1  0  0  0  0
  8 44  1  0  0  0  0
  9 45  1  0  0  0  0
 10 46  1  0  0  0  0
 11 47  1  0  0  0  0
 22 48  1  0  0  0  0
 22 49  1  0  0  0  0
 22 50  1  0  0  0  0
 23 51  1  0  0  0  0
 23 52  1  0  0  0  0
 23 53  1  0  0  0  0
 24 54  1  0  0  0  0
 24 55  1  0  0  0  0
 24 56  1  0  0  0  0
 25 57  1  0  0  0  0
 25 58  1  0  0  0  0
 29 59  1  0  0  0  0
 30 60  1  0  0  0  0
M  END
> <Name>
EZ_20

> <SourceTag>
EZ_20

> <Activity_FLAP>
100

> <Activity_sEH>
19.1

> <Gold.Version>
5.2

> <Gold.Id.Protein>
6HGV|6HGV_protein|mol2

> <Gold.PLP.Fitness>
87.8730

> <Gold.PLP.PLP>
-85.8728

> <Gold.PLP.part.hbond>
-6.0928

> <Gold.PLP.part.metal>
0.0000

> <Gold.PLP.part.buried>
6.5131

> <Gold.PLP.part.nonpolar>
-87.0919

> <Gold.PLP.part.repulsive>
0.0258

> <Gold.PLP.ligand.clash>
0.1841

> <Gold.PLP.ligand.torsion>
1.5097

> <Gold.PLP.Chemscore.Hbond>
0.8037

> <Gold.PLP.Chemscore.CHOScore>
0.0000

> <Gold.PLP.Chemscore.Metal>
0.0000

> <Gold.Chemscore.Hbonds>
donor molecule, donor type, donor heavy atom, donor atom, acceptor molecule, acceptor atom, score
      L1  H    29    59       P1  1931  0.78
      P1  H  1247  3847       L1    34  0.02

> <Gold.PLP.Chemscore.Internal.Correction>
1.0095

> <Gold.Protein.RotatedTorsions>
[ 3525  925  924  922 ] final -110.90 input   59.99 | X-H torsion
[ 3781 1176 1175 1172 ] final   68.50 input   60.00 | X-H torsion
[ 4531 1957 1955 1953 ] final  176.39 input   60.00 | X-H torsion
[ 3847 1247 1246 1244 ] final  -48.27 input   60.00 | X-H torsion
[ 4507 1931 1930 1928 ] final -127.26 input   60.00 | X-H torsion
[ 3677 1070 1069 1066 ] final -173.36 input   60.00 | X-H torsion

> <Gold.Protein.ActiveResidues>
 GLY266  PHE267  PRO268  GLU269  MET310  HIS334  ASP335  TRP336  GLY337  GLY338 
 MET339  LEU340  TRP342  TYR343  LEU358  ASN359  THR360  PRO361  ILE363  ALA365 
 MET369  SER370  PRO371  LEU372  GLU373  SER374  ILE375  LYS376  ALA377  ASN378 
 VAL380  PHE381  ASP382  TYR383  GLN384  PHE387  GLN388  LEU397  SER407  LEU408 
 PHE409  ARG410  LEU417  MET419  LEU428  PHE429  PHE459  TRP465  TYR466  ASN468 
 MET469  GLU470  ASN472  TRP473  ALA476  ASP496  PHE497  VAL498  LEU499  MET503 
 HIS524  TRP525 

> <Gold.Protein.RotatedAtoms>
   -3.1557  -29.8702  -29.0341 H   0  0  0  0  0  0  0  0  0  0  0  0  # atno 3525 bound_to 925 
  -11.0904  -22.8602  -31.2247 H   0  0  0  0  0  0  0  0  0  0  0  0  # atno 3677 bound_to 1070
  -10.5162  -37.4214  -32.6723 H   0  0  0  0  0  0  0  0  0  0  0  0  # atno 3781 bound_to 1176
  -16.0637  -28.0485  -37.1721 H   0  0  0  0  0  0  0  0  0  0  0  0  # atno 3847 bound_to 1247
  -13.4261  -24.3910  -40.4793 H   0  0  0  0  0  0  0  0  0  0  0  0  # atno 4507 bound_to 1931
   -1.5417  -33.8042  -36.9616 H   0  0  0  0  0  0  0  0  0  0  0  0  # atno 4531 bound_to 1957
   -2.0742  -30.2382  -30.1929 LP  0  0  0  0  0  0  0  0  0  0  0  0  # atno 5201 bound_to 925 
   -3.5114  -29.5749  -30.5943 LP  0  0  0  0  0  0  0  0  0  0  0  0  # atno 5202 bound_to 925 
  -10.3470  -36.7534  -34.1464 LP  0  0  0  0  0  0  0  0  0  0  0  0  # atno 5205 bound_to 1176
   -9.2441  -36.4545  -32.9799 LP  0  0  0  0  0  0  0  0  0  0  0  0  # atno 5206 bound_to 1176
   -3.0779  -33.3602  -36.6595 LP  0  0  0  0  0  0  0  0  0  0  0  0  # atno 5213 bound_to 1957
   -1.9212  -32.2250  -36.8597 LP  0  0  0  0  0  0  0  0  0  0  0  0  # atno 5214 bound_to 1957
  -14.8205  -27.3257  -37.9338 LP  0  0  0  0  0  0  0  0  0  0  0  0  # atno 5227 bound_to 1247
  -14.6741  -28.8631  -37.4032 LP  0  0  0  0  0  0  0  0  0  0  0  0  # atno 5228 bound_to 1247
  -12.4311  -23.9936  -39.2545 LP  0  0  0  0  0  0  0  0  0  0  0  0  # atno 5245 bound_to 1931
  -13.3350  -25.3509  -39.1685 LP  0  0  0  0  0  0  0  0  0  0  0  0  # atno 5246 bound_to 1931
  -12.3569  -22.3722  -30.3271 LP  0  0  0  0  0  0  0  0  0  0  0  0  # atno 5265 bound_to 1070
  -12.4128  -23.8021  -31.1139 LP  0  0  0  0  0  0  0  0  0  0  0  0  # atno 5266 bound_to 1070

$$$$
EZ_20|Lisa_paper2_min|sdf|8|dock8
  -GOLD-  10202014353D 1   1.00000     0.00000

 60 63  0  0  0  0  0  0  0  0  1 V2000
   -3.0695  -32.0744  -32.4496 C   0  0  0  0  0  0  0  0  0  0  0  0
   -4.0193  -32.6944  -31.6405 C   0  0  0  0  0  0  0  0  0  0  0  0
   -3.4578  -31.1671  -33.4397 C   0  0  0  0  0  0  0  0  0  0  0  0
   -5.3849  -32.4295  -31.7926 C   0  0  0  0  0  0  0  0  0  0  0  0
  -11.0536  -27.3030  -36.3155 C   0  0  0  0  0  0  0  0  0  0  0  0
  -10.4995  -25.5064  -34.7981 C   0  0  0  0  0  0  0  0  0  0  0  0
  -16.6648  -25.1726  -37.2255 C   0  0  0  0  0  0  0  0  0  0  0  0
  -10.0412  -28.0849  -35.7595 C   0  0  0  0  0  0  0  0  0  0  0  0
   -9.4870  -26.2884  -34.2421 C   0  0  0  0  0  0  0  0  0  0  0  0
  -17.9646  -25.1215  -37.7291 C   0  0  0  0  0  0  0  0  0  0  0  0
  -15.9350  -23.6515  -38.9548 C   0  0  0  0  0  0  0  0  0  0  0  0
   -4.8262  -30.8895  -33.6062 C   0  0  0  0  0  0  0  0  0  0  0  0
   -5.7658  -31.5181  -32.7882 C   0  0  0  0  0  0  0  0  0  0  0  0
  -11.2828  -26.0137  -35.8348 C   0  0  0  0  0  0  0  0  0  0  0  0
  -15.6501  -24.4376  -37.8384 C   0  0  0  0  0  0  0  0  0  0  0  0
   -9.2579  -27.5777  -34.7227 C   0  0  0  0  0  0  0  0  0  0  0  0
  -18.2497  -24.3354  -38.8455 C   0  0  0  0  0  0  0  0  0  0  0  0
  -17.2348  -23.6004  -39.4584 C   0  0  0  0  0  0  0  0  0  0  0  0
   -6.7176  -30.1501  -34.2415 C   0  0  0  0  0  0  0  0  0  0  0  0
   -8.2573  -31.3530  -32.7034 C   0  0  0  0  0  0  0  0  0  0  0  0
  -13.5940  -25.5434  -36.8152 C   0  0  0  0  0  0  0  0  0  0  0  0
  -10.4259  -32.9581  -31.8070 C   0  0  0  0  0  0  0  0  0  0  0  0
   -8.9734  -33.4704  -29.8228 C   0  0  0  0  0  0  0  0  0  0  0  0
   -9.6915  -31.1056  -30.2697 C   0  0  0  0  0  0  0  0  0  0  0  0
   -7.7438  -29.3915  -34.9933 C   0  0  0  0  0  0  0  0  0  0  0  0
   -9.3080  -32.4427  -30.9018 C   0  0  0  0  0  0  0  0  0  0  0  0
   -5.4351  -30.0482  -34.4979 N   0  0  0  0  0  0  0  0  0  0  0  0
   -6.9950  -31.0273  -33.2122 N   0  0  0  0  0  0  0  0  0  0  0  0
  -12.2953  -25.2314  -36.3909 N   0  0  0  0  0  0  0  0  0  0  0  0
  -14.3295  -24.4893  -37.3259 N   0  0  0  0  0  0  0  0  0  0  0  0
   -9.2739  -30.8553  -33.1586 O   0  0  0  0  0  0  0  0  0  0  0  0
   -8.2646  -28.3448  -34.1772 O   0  0  0  0  0  0  0  0  0  0  0  0
   -8.1323  -32.2516  -31.6942 O   0  0  0  0  0  0  0  0  0  0  0  0
  -14.1471  -27.1089  -36.5257 S   0  0  0  0  0  0  0  0  0  0  0  0
  -19.8786  -24.3164  -39.4236 Cl  0  0  0  0  0  0  0  0  0  0  0  0
  -17.5250  -22.6101  -40.8456 Cl  0  0  0  0  0  0  0  0  0  0  0  0
   -2.0151  -32.2976  -32.3108 H   0  0  0  0  0  0  0  0  0  0  0  0
   -3.6950  -33.3972  -30.8770 H   0  0  0  0  0  0  0  0  0  0  0  0
   -2.7121  -30.6881  -34.0666 H   0  0  0  0  0  0  0  0  0  0  0  0
   -6.1036  -32.9250  -31.1506 H   0  0  0  0  0  0  0  0  0  0  0  0
  -11.6581  -27.7085  -37.1229 H   0  0  0  0  0  0  0  0  0  0  0  0
  -10.6689  -24.5031  -34.4156 H   0  0  0  0  0  0  0  0  0  0  0  0
  -16.4538  -25.7871  -36.3541 H   0  0  0  0  0  0  0  0  0  0  0  0
   -9.8676  -29.0885  -36.1382 H   0  0  0  0  0  0  0  0  0  0  0  0
   -8.8801  -25.8876  -33.4347 H   0  0  0  0  0  0  0  0  0  0  0  0
  -18.7433  -25.6998  -37.2378 H   0  0  0  0  0  0  0  0  0  0  0  0
  -15.1389  -23.0814  -39.4295 H   0  0  0  0  0  0  0  0  0  0  0  0
  -10.6690  -32.2233  -32.5828 H   0  0  0  0  0  0  0  0  0  0  0  0
  -10.1494  -33.8991  -32.2937 H   0  0  0  0  0  0  0  0  0  0  0  0
  -11.3473  -33.1213  -31.2363 H   0  0  0  0  0  0  0  0  0  0  0  0
   -8.1718  -33.1048  -29.1709 H   0  0  0  0  0  0  0  0  0  0  0  0
   -8.6069  -34.4012  -30.2706 H   0  0  0  0  0  0  0  0  0  0  0  0
   -9.8451  -33.7037  -29.2029 H   0  0  0  0  0  0  0  0  0  0  0  0
   -8.8898  -30.7356  -29.6203 H   0  0  0  0  0  0  0  0  0  0  0  0
   -9.8993  -30.3452  -31.0295 H   0  0  0  0  0  0  0  0  0  0  0  0
  -10.5781  -31.2147  -29.6347 H   0  0  0  0  0  0  0  0  0  0  0  0
   -7.3312  -28.9394  -35.9102 H   0  0  0  0  0  0  0  0  0  0  0  0
   -8.5815  -30.0374  -35.3035 H   0  0  0  0  0  0  0  0  0  0  0  0
  -12.0781  -24.2322  -36.4892 H   0  0  0  0  0  0  0  0  0  0  0  0
  -13.8879  -23.5778  -37.2339 H   0  0  0  0  0  0  0  0  0  0  0  0
  1  2  2  0  0  0  0
  1  3  1  0  0  0  0
  2  4  1  0  0  0  0
  3 12  2  0  0  0  0
  4 13  2  0  0  0  0
  5  8  1  0  0  0  0
  5 14  2  0  0  0  0
  6  9  2  0  0  0  0
  6 14  1  0  0  0  0
  7 10  1  0  0  0  0
  7 15  2  0  0  0  0
  8 16  2  0  0  0  0
  9 16  1  0  0  0  0
 10 17  2  0  0  0  0
 11 15  1  0  0  0  0
 11 18  2  0  0  0  0
 12 13  1  0  0  0  0
 12 27  1  0  0  0  0
 13 28  1  0  0  0  0
 14 29  1  0  0  0  0
 15 30  1  0  0  0  0
 16 32  1  0  0  0  0
 17 18  1  0  0  0  0
 17 35  1  0  0  0  0
 18 36  1  0  0  0  0
 19 25  1  0  0  0  0
 19 27  2  0  0  0  0
 19 28  1  0  0  0  0
 20 28  1  0  0  0  0
 20 31  2  0  0  0  0
 20 33  1  0  0  0  0
 21 29  1  0  0  0  0
 21 30  1  0  0  0  0
 21 34  2  0  0  0  0
 22 26  1  0  0  0  0
 23 26  1  0  0  0  0
 24 26  1  0  0  0  0
 25 32  1  0  0  0  0
 26 33  1  0  0  0  0
  1 37  1  0  0  0  0
  2 38  1  0  0  0  0
  3 39  1  0  0  0  0
  4 40  1  0  0  0  0
  5 41  1  0  0  0  0
  6 42  1  0  0  0  0
  7 43  1  0  0  0  0
  8 44  1  0  0  0  0
  9 45  1  0  0  0  0
 10 46  1  0  0  0  0
 11 47  1  0  0  0  0
 22 48  1  0  0  0  0
 22 49  1  0  0  0  0
 22 50  1  0  0  0  0
 23 51  1  0  0  0  0
 23 52  1  0  0  0  0
 23 53  1  0  0  0  0
 24 54  1  0  0  0  0
 24 55  1  0  0  0  0
 24 56  1  0  0  0  0
 25 57  1  0  0  0  0
 25 58  1  0  0  0  0
 29 59  1  0  0  0  0
 30 60  1  0  0  0  0
M  END
> <Name>
EZ_20

> <SourceTag>
EZ_20

> <Activity_FLAP>
100

> <Activity_sEH>
19.1

> <Gold.Version>
5.2

> <Gold.Id.Protein>
6HGV|6HGV_protein|mol2

> <Gold.PLP.Fitness>
85.9117

> <Gold.PLP.PLP>
-84.6270

> <Gold.PLP.part.hbond>
-6.4415

> <Gold.PLP.part.metal>
0.0000

> <Gold.PLP.part.buried>
11.0274

> <Gold.PLP.part.nonpolar>
-90.3107

> <Gold.PLP.part.repulsive>
0.0599

> <Gold.PLP.ligand.clash>
0.0000

> <Gold.PLP.ligand.torsion>
1.2462

> <Gold.PLP.Chemscore.Hbond>
0.5786

> <Gold.PLP.Chemscore.CHOScore>
0.0000

> <Gold.PLP.Chemscore.Metal>
0.0000

> <Gold.Chemscore.Hbonds>
donor molecule, donor type, donor heavy atom, donor atom, acceptor molecule, acceptor atom, score
      L1  H    30    60       P1   853  0.03
      P1  H  1256  3855       L1    34  0.23
      P1  H  1247  3847       L1    34  0.31

> <Gold.PLP.Chemscore.Internal.Correction>
0.5983

> <Gold.Protein.RotatedTorsions>
[ 3525  925  924  922 ] final  -18.20 input   59.99 | X-H torsion
[ 3781 1176 1175 1172 ] final  -71.76 input   60.00 | X-H torsion
[ 4531 1957 1955 1953 ] final -126.73 input   60.00 | X-H torsion
[ 3847 1247 1246 1244 ] final  136.69 input   60.00 | X-H torsion
[ 4507 1931 1930 1928 ] final  -98.04 input   60.00 | X-H torsion
[ 3677 1070 1069 1066 ] final  130.34 input   60.00 | X-H torsion

> <Gold.Protein.ActiveResidues>
 GLY266  PHE267  PRO268  GLU269  MET310  HIS334  ASP335  TRP336  GLY337  GLY338 
 MET339  LEU340  TRP342  TYR343  LEU358  ASN359  THR360  PRO361  ILE363  ALA365 
 MET369  SER370  PRO371  LEU372  GLU373  SER374  ILE375  LYS376  ALA377  ASN378 
 VAL380  PHE381  ASP382  TYR383  GLN384  PHE387  GLN388  LEU397  SER407  LEU408 
 PHE409  ARG410  LEU417  MET419  LEU428  PHE429  PHE459  TRP465  TYR466  ASN468 
 MET469  GLU470  ASN472  TRP473  ALA476  ASP496  PHE497  VAL498  LEU499  MET503 
 HIS524  TRP525 

> <Gold.Protein.RotatedAtoms>
   -3.7254  -29.5142  -30.2105 H   0  0  0  0  0  0  0  0  0  0  0  0  # atno 3525 bound_to 925 
  -11.4467  -22.2457  -30.6995 H   0  0  0  0  0  0  0  0  0  0  0  0  # atno 3677 bound_to 1070
  -10.0711  -36.5714  -34.1488 H   0  0  0  0  0  0  0  0  0  0  0  0  # atno 3781 bound_to 1176
  -14.3242  -28.0344  -37.8602 H   0  0  0  0  0  0  0  0  0  0  0  0  # atno 3847 bound_to 1247
  -13.6330  -24.7947  -40.3480 H   0  0  0  0  0  0  0  0  0  0  0  0  # atno 4507 bound_to 1931
   -1.2754  -32.9540  -36.9975 H   0  0  0  0  0  0  0  0  0  0  0  0  # atno 4531 bound_to 1957
   -2.7505  -30.0504  -29.0230 LP  0  0  0  0  0  0  0  0  0  0  0  0  # atno 5201 bound_to 925 
   -2.2613  -30.1213  -30.5794 LP  0  0  0  0  0  0  0  0  0  0  0  0  # atno 5202 bound_to 925 
   -9.3279  -36.6145  -32.7018 LP  0  0  0  0  0  0  0  0  0  0  0  0  # atno 5205 bound_to 1176
  -10.7115  -37.4493  -32.9375 LP  0  0  0  0  0  0  0  0  0  0  0  0  # atno 5206 bound_to 1176
   -2.4842  -34.0222  -36.7838 LP  0  0  0  0  0  0  0  0  0  0  0  0  # atno 5213 bound_to 1957
   -2.7831  -32.4191  -36.6992 LP  0  0  0  0  0  0  0  0  0  0  0  0  # atno 5214 bound_to 1957
  -15.4843  -28.8697  -37.0827 LP  0  0  0  0  0  0  0  0  0  0  0  0  # atno 5227 bound_to 1247
  -15.7620  -27.3333  -37.5614 LP  0  0  0  0  0  0  0  0  0  0  0  0  # atno 5228 bound_to 1247
  -12.5387  -23.7967  -39.6739 LP  0  0  0  0  0  0  0  0  0  0  0  0  # atno 5245 bound_to 1931
  -13.0191  -25.1412  -38.8813 LP  0  0  0  0  0  0  0  0  0  0  0  0  # atno 5246 bound_to 1931
  -12.8142  -23.1099  -30.5224 LP  0  0  0  0  0  0  0  0  0  0  0  0  # atno 5265 bound_to 1070
  -11.5967  -23.6832  -31.4474 LP  0  0  0  0  0  0  0  0  0  0  0  0  # atno 5266 bound_to 1070

$$$$
EZ_20|Lisa_paper2_min|sdf|8|dock4
  -GOLD-  10202014353D 1   1.00000     0.00000

 60 63  0  0  0  0  0  0  0  0  1 V2000
   -3.0943  -32.1873  -32.3269 C   0  0  0  0  0  0  0  0  0  0  0  0
   -4.0378  -32.7300  -31.4571 C   0  0  0  0  0  0  0  0  0  0  0  0
   -3.4851  -31.3295  -33.3593 C   0  0  0  0  0  0  0  0  0  0  0  0
   -5.3993  -32.4347  -31.5887 C   0  0  0  0  0  0  0  0  0  0  0  0
  -10.9471  -27.3422  -36.2967 C   0  0  0  0  0  0  0  0  0  0  0  0
  -10.3877  -25.5191  -34.8133 C   0  0  0  0  0  0  0  0  0  0  0  0
  -16.6474  -25.3266  -36.9913 C   0  0  0  0  0  0  0  0  0  0  0  0
   -9.8970  -28.0936  -35.7693 C   0  0  0  0  0  0  0  0  0  0  0  0
   -9.3375  -26.2706  -34.2859 C   0  0  0  0  0  0  0  0  0  0  0  0
  -17.9667  -25.3109  -37.4438 C   0  0  0  0  0  0  0  0  0  0  0  0
  -16.0078  -23.8645  -38.8052 C   0  0  0  0  0  0  0  0  0  0  0  0
   -4.8495  -31.0224  -33.5060 C   0  0  0  0  0  0  0  0  0  0  0  0
   -5.7827  -31.5734  -32.6269 C   0  0  0  0  0  0  0  0  0  0  0  0
  -11.1925  -26.0549  -35.8187 C   0  0  0  0  0  0  0  0  0  0  0  0
  -15.6680  -24.6034  -37.6719 C   0  0  0  0  0  0  0  0  0  0  0  0
   -9.0922  -27.5579  -34.7638 C   0  0  0  0  0  0  0  0  0  0  0  0
  -18.3067  -24.5721  -38.5770 C   0  0  0  0  0  0  0  0  0  0  0  0
  -17.3272  -23.8489  -39.2577 C   0  0  0  0  0  0  0  0  0  0  0  0
   -6.7369  -30.2669  -34.1343 C   0  0  0  0  0  0  0  0  0  0  0  0
   -8.2653  -31.3305  -32.4863 C   0  0  0  0  0  0  0  0  0  0  0  0
  -13.5500  -25.6492  -36.7140 C   0  0  0  0  0  0  0  0  0  0  0  0
   -9.0498  -33.6907  -29.8071 C   0  0  0  0  0  0  0  0  0  0  0  0
  -10.1018  -31.4585  -30.2766 C   0  0  0  0  0  0  0  0  0  0  0  0
  -10.1910  -33.2728  -32.0111 C   0  0  0  0  0  0  0  0  0  0  0  0
   -7.7625  -29.5246  -34.9030 C   0  0  0  0  0  0  0  0  0  0  0  0
   -9.3681  -32.6530  -30.8826 C   0  0  0  0  0  0  0  0  0  0  0  0
   -5.4597  -30.2181  -34.4303 N   0  0  0  0  0  0  0  0  0  0  0  0
   -7.0094  -31.0728  -33.0470 N   0  0  0  0  0  0  0  0  0  0  0  0
  -12.2427  -25.3032  -36.3463 N   0  0  0  0  0  0  0  0  0  0  0  0
  -14.3275  -24.6191  -37.2113 N   0  0  0  0  0  0  0  0  0  0  0  0
   -9.2801  -30.8312  -32.9436 O   0  0  0  0  0  0  0  0  0  0  0  0
   -8.0619  -28.2950  -34.2463 O   0  0  0  0  0  0  0  0  0  0  0  0
   -8.1368  -32.1707  -31.4285 O   0  0  0  0  0  0  0  0  0  0  0  0
  -14.0573  -27.2210  -36.3791 S   0  0  0  0  0  0  0  0  0  0  0  0
  -19.9574  -24.5954  -39.0895 Cl  0  0  0  0  0  0  0  0  0  0  0  0
  -17.6858  -22.9165  -40.6688 Cl  0  0  0  0  0  0  0  0  0  0  0  0
   -2.0431  -32.4327  -32.2030 H   0  0  0  0  0  0  0  0  0  0  0  0
   -3.7117  -33.3954  -30.6615 H   0  0  0  0  0  0  0  0  0  0  0  0
   -2.7444  -30.9107  -34.0335 H   0  0  0  0  0  0  0  0  0  0  0  0
   -6.1130  -32.8699  -30.8992 H   0  0  0  0  0  0  0  0  0  0  0  0
  -11.5680  -27.7698  -37.0799 H   0  0  0  0  0  0  0  0  0  0  0  0
  -10.5695  -24.5170  -34.4331 H   0  0  0  0  0  0  0  0  0  0  0  0
  -16.3935  -25.9044  -36.1062 H   0  0  0  0  0  0  0  0  0  0  0  0
   -9.7109  -29.0958  -36.1457 H   0  0  0  0  0  0  0  0  0  0  0  0
   -8.7141  -25.8477  -33.5027 H   0  0  0  0  0  0  0  0  0  0  0  0
  -18.7172  -25.8793  -36.9000 H   0  0  0  0  0  0  0  0  0  0  0  0
  -15.2391  -23.3034  -39.3328 H   0  0  0  0  0  0  0  0  0  0  0  0
   -8.5233  -34.5496  -30.2381 H   0  0  0  0  0  0  0  0  0  0  0  0
   -8.4307  -33.2678  -29.0092 H   0  0  0  0  0  0  0  0  0  0  0  0
   -9.9695  -34.0847  -29.3595 H   0  0  0  0  0  0  0  0  0  0  0  0
  -10.3322  -30.7115  -31.0447 H   0  0  0  0  0  0  0  0  0  0  0  0
   -9.4761  -30.9530  -29.5321 H   0  0  0  0  0  0  0  0  0  0  0  0
  -11.0375  -31.7609  -29.7953 H   0  0  0  0  0  0  0  0  0  0  0  0
  -10.4195  -32.5287  -32.7827 H   0  0  0  0  0  0  0  0  0  0  0  0
   -9.6639  -34.1087  -32.4824 H   0  0  0  0  0  0  0  0  0  0  0  0
  -11.1550  -33.6357  -31.6365 H   0  0  0  0  0  0  0  0  0  0  0  0
   -7.4224  -29.2938  -35.9260 H   0  0  0  0  0  0  0  0  0  0  0  0
   -8.6966  -30.1020  -34.9986 H   0  0  0  0  0  0  0  0  0  0  0  0
  -12.0511  -24.3013  -36.4682 H   0  0  0  0  0  0  0  0  0  0  0  0
  -13.9025  -23.6972  -37.1507 H   0  0  0  0  0  0  0  0  0  0  0  0
  1  2  2  0  0  0  0
  1  3  1  0  0  0  0
  2  4  1  0  0  0  0
  3 12  2  0  0  0  0
  4 13  2  0  0  0  0
  5  8  1  0  0  0  0
  5 14  2  0  0  0  0
  6  9  2  0  0  0  0
  6 14  1  0  0  0  0
  7 10  1  0  0  0  0
  7 15  2  0  0  0  0
  8 16  2  0  0  0  0
  9 16  1  0  0  0  0
 10 17  2  0  0  0  0
 11 15  1  0  0  0  0
 11 18  2  0  0  0  0
 12 13  1  0  0  0  0
 12 27  1  0  0  0  0
 13 28  1  0  0  0  0
 14 29  1  0  0  0  0
 15 30  1  0  0  0  0
 16 32  1  0  0  0  0
 17 18  1  0  0  0  0
 17 35  1  0  0  0  0
 18 36  1  0  0  0  0
 19 25  1  0  0  0  0
 19 27  2  0  0  0  0
 19 28  1  0  0  0  0
 20 28  1  0  0  0  0
 20 31  2  0  0  0  0
 20 33  1  0  0  0  0
 21 29  1  0  0  0  0
 21 30  1  0  0  0  0
 21 34  2  0  0  0  0
 22 26  1  0  0  0  0
 23 26  1  0  0  0  0
 24 26  1  0  0  0  0
 25 32  1  0  0  0  0
 26 33  1  0  0  0  0
  1 37  1  0  0  0  0
  2 38  1  0  0  0  0
  3 39  1  0  0  0  0
  4 40  1  0  0  0  0
  5 41  1  0  0  0  0
  6 42  1  0  0  0  0
  7 43  1  0  0  0  0
  8 44  1  0  0  0  0
  9 45  1  0  0  0  0
 10 46  1  0  0  0  0
 11 47  1  0  0  0  0
 22 48  1  0  0  0  0
 22 49  1  0  0  0  0
 22 50  1  0  0  0  0
 23 51  1  0  0  0  0
 23 52  1  0  0  0  0
 23 53  1  0  0  0  0
 24 54  1  0  0  0  0
 24 55  1  0  0  0  0
 24 56  1  0  0  0  0
 25 57  1  0  0  0  0
 25 58  1  0  0  0  0
 29 59  1  0  0  0  0
 30 60  1  0  0  0  0
M  END
> <Name>
EZ_20

> <SourceTag>
EZ_20

> <Activity_FLAP>
100

> <Activity_sEH>
19.1

> <Gold.Version>
5.2

> <Gold.Id.Protein>
6HGV|6HGV_protein|mol2

> <Gold.PLP.Fitness>
83.2393

> <Gold.PLP.PLP>
-83.1233

> <Gold.PLP.part.hbond>
-5.8379

> <Gold.PLP.part.metal>
0.0000

> <Gold.PLP.part.buried>
9.9578

> <Gold.PLP.part.nonpolar>
-88.0205

> <Gold.PLP.part.repulsive>
0.0612

> <Gold.PLP.ligand.clash>
1.3776

> <Gold.PLP.ligand.torsion>
1.1337

> <Gold.PLP.Chemscore.Hbond>
0.5683

> <Gold.PLP.Chemscore.CHOScore>
0.0000

> <Gold.PLP.Chemscore.Metal>
0.0000

> <Gold.Chemscore.Hbonds>
donor molecule, donor type, donor heavy atom, donor atom, acceptor molecule, acceptor atom, score
      L1  H    30    60       P1   853  0.08
      P1  H  1256  3855       L1    34  0.27
      P1  H  1247  3847       L1    34  0.22

> <Gold.PLP.Chemscore.Internal.Correction>
0.7293

> <Gold.Protein.RotatedTorsions>
[ 3525  925  924  922 ] final   25.74 input   59.99 | X-H torsion
[ 3781 1176 1175 1172 ] final   42.68 input   60.00 | X-H torsion
[ 4531 1957 1955 1953 ] final -111.07 input   60.00 | X-H torsion
[ 3847 1247 1246 1244 ] final   90.23 input   60.00 | X-H torsion
[ 4507 1931 1930 1928 ] final   59.16 input   60.00 | X-H torsion
[ 3677 1070 1069 1066 ] final -137.25 input   60.00 | X-H torsion

> <Gold.Protein.ActiveResidues>
 GLY266  PHE267  PRO268  GLU269  MET310  HIS334  ASP335  TRP336  GLY337  GLY338 
 MET339  LEU340  TRP342  TYR343  LEU358  ASN359  THR360  PRO361  ILE363  ALA365 
 MET369  SER370  PRO371  LEU372  GLU373  SER374  ILE375  LYS376  ALA377  ASN378 
 VAL380  PHE381  ASP382  TYR383  GLN384  PHE387  GLN388  LEU397  SER407  LEU408 
 PHE409  ARG410  LEU417  MET419  LEU428  PHE429  PHE459  TRP465  TYR466  ASN468 
 MET469  GLU470  ASN472  TRP473  ALA476  ASP496  PHE497  VAL498  LEU499  MET503 
 HIS524  TRP525 

> <Gold.Protein.RotatedAtoms>
   -3.3036  -29.6484  -30.7535 H   0  0  0  0  0  0  0  0  0  0  0  0  # atno 3525 bound_to 925 
  -11.2745  -23.3724  -31.4259 H   0  0  0  0  0  0  0  0  0  0  0  0  # atno 3677 bound_to 1070
  -10.7437  -37.4419  -33.0227 H   0  0  0  0  0  0  0  0  0  0  0  0  # atno 3781 bound_to 1176
  -14.4778  -28.6869  -37.5504 H   0  0  0  0  0  0  0  0  0  0  0  0  # atno 3847 bound_to 1247
  -12.6458  -24.6787  -38.8050 H   0  0  0  0  0  0  0  0  0  0  0  0  # atno 4507 bound_to 1931
   -1.3552  -32.7125  -36.9782 H   0  0  0  0  0  0  0  0  0  0  0  0  # atno 4531 bound_to 1957
   -3.3857  -29.7635  -29.1323 LP  0  0  0  0  0  0  0  0  0  0  0  0  # atno 5201 bound_to 925 
   -2.0510  -30.2730  -29.9233 LP  0  0  0  0  0  0  0  0  0  0  0  0  # atno 5202 bound_to 925 
   -9.9951  -36.5221  -34.1369 LP  0  0  0  0  0  0  0  0  0  0  0  0  # atno 5205 bound_to 1176
   -9.3670  -36.6651  -32.6364 LP  0  0  0  0  0  0  0  0  0  0  0  0  # atno 5206 bound_to 1176
   -2.2369  -34.0723  -36.8316 LP  0  0  0  0  0  0  0  0  0  0  0  0  # atno 5213 bound_to 1957
   -2.9501  -32.6121  -36.6708 LP  0  0  0  0  0  0  0  0  0  0  0  0  # atno 5214 bound_to 1957
  -15.9967  -28.3307  -37.0878 LP  0  0  0  0  0  0  0  0  0  0  0  0  # atno 5227 bound_to 1247
  -15.0950  -27.2152  -37.8684 LP  0  0  0  0  0  0  0  0  0  0  0  0  # atno 5228 bound_to 1247
  -13.6898  -25.2201  -39.9297 LP  0  0  0  0  0  0  0  0  0  0  0  0  # atno 5245 bound_to 1931
  -12.8621  -23.8347  -40.1794 LP  0  0  0  0  0  0  0  0  0  0  0  0  # atno 5246 bound_to 1931
  -11.8275  -22.1737  -30.4743 LP  0  0  0  0  0  0  0  0  0  0  0  0  # atno 5265 bound_to 1070
  -12.7569  -23.4848  -30.7641 LP  0  0  0  0  0  0  0  0  0  0  0  0  # atno 5266 bound_to 1070

$$$$
EZ_21|Lisa_paper2_min|sdf|9|dock1
  -GOLD-  10202014353D 1   1.00000     0.00000

 45 48  0  0  0  0  0  0  0  0  1 V2000
   -3.3255  -31.1260  -33.4584 C   0  0  0  0  0  0  0  0  0  0  0  0
   -3.5998  -32.2177  -34.2855 C   0  0  0  0  0  0  0  0  0  0  0  0
   -4.2851  -30.1304  -33.2359 C   0  0  0  0  0  0  0  0  0  0  0  0
   -4.8394  -32.3549  -34.9190 C   0  0  0  0  0  0  0  0  0  0  0  0
  -11.3696  -25.4431  -35.2086 C   0  0  0  0  0  0  0  0  0  0  0  0
  -11.4993  -27.1126  -36.9503 C   0  0  0  0  0  0  0  0  0  0  0  0
  -16.7018  -23.3638  -39.2769 C   0  0  0  0  0  0  0  0  0  0  0  0
  -10.3980  -26.2007  -34.5547 C   0  0  0  0  0  0  0  0  0  0  0  0
  -10.5276  -27.8701  -36.2965 C   0  0  0  0  0  0  0  0  0  0  0  0
  -18.0558  -23.1865  -39.5607 C   0  0  0  0  0  0  0  0  0  0  0  0
  -17.2805  -24.7199  -37.3630 C   0  0  0  0  0  0  0  0  0  0  0  0
   -5.5358  -30.2521  -33.8647 C   0  0  0  0  0  0  0  0  0  0  0  0
   -5.7795  -31.3515  -34.6831 C   0  0  0  0  0  0  0  0  0  0  0  0
  -11.9204  -25.8991  -36.4064 C   0  0  0  0  0  0  0  0  0  0  0  0
  -16.3140  -24.1305  -38.1780 C   0  0  0  0  0  0  0  0  0  0  0  0
   -9.9769  -27.4142  -35.0987 C   0  0  0  0  0  0  0  0  0  0  0  0
  -19.0224  -23.7759  -38.7457 C   0  0  0  0  0  0  0  0  0  0  0  0
  -18.6347  -24.5426  -37.6468 C   0  0  0  0  0  0  0  0  0  0  0  0
   -7.5318  -30.0046  -34.5817 C   0  0  0  0  0  0  0  0  0  0  0  0
  -14.2863  -25.2665  -37.1316 C   0  0  0  0  0  0  0  0  0  0  0  0
   -8.8952  -29.5193  -34.8658 C   0  0  0  0  0  0  0  0  0  0  0  0
   -6.6355  -29.4267  -33.8136 N   0  0  0  0  0  0  0  0  0  0  0  0
   -7.0636  -31.1671  -35.1280 N   0  0  0  0  0  0  0  0  0  0  0  0
  -12.8924  -25.1415  -37.0604 N   0  0  0  0  0  0  0  0  0  0  0  0
  -14.9379  -24.3111  -37.8902 N   0  0  0  0  0  0  0  0  0  0  0  0
   -9.0242  -28.1570  -34.4576 O   0  0  0  0  0  0  0  0  0  0  0  0
  -15.0051  -26.4609  -36.1846 S   0  0  0  0  0  0  0  0  0  0  0  0
  -20.6834  -23.5165  -39.1479 Cl  0  0  0  0  0  0  0  0  0  0  0  0
  -19.7848  -25.2962  -36.5987 Cl  0  0  0  0  0  0  0  0  0  0  0  0
   -2.3528  -31.0475  -32.9794 H   0  0  0  0  0  0  0  0  0  0  0  0
   -2.8353  -32.9750  -34.4413 H   0  0  0  0  0  0  0  0  0  0  0  0
   -4.0620  -29.2867  -32.5907 H   0  0  0  0  0  0  0  0  0  0  0  0
   -5.0543  -33.2020  -35.5604 H   0  0  0  0  0  0  0  0  0  0  0  0
  -11.6902  -24.4989  -34.7757 H   0  0  0  0  0  0  0  0  0  0  0  0
  -11.9215  -27.4778  -37.8830 H   0  0  0  0  0  0  0  0  0  0  0  0
  -15.9568  -22.9014  -39.9193 H   0  0  0  0  0  0  0  0  0  0  0  0
   -9.9727  -25.8402  -33.6221 H   0  0  0  0  0  0  0  0  0  0  0  0
  -10.2038  -28.8146  -36.7250 H   0  0  0  0  0  0  0  0  0  0  0  0
  -18.3397  -22.5869  -40.4221 H   0  0  0  0  0  0  0  0  0  0  0  0
  -16.9720  -25.3159  -36.5063 H   0  0  0  0  0  0  0  0  0  0  0  0
   -9.1429  -29.5761  -35.9409 H   0  0  0  0  0  0  0  0  0  0  0  0
   -9.6631  -30.1091  -34.3340 H   0  0  0  0  0  0  0  0  0  0  0  0
   -7.5712  -31.7834  -35.7489 H   0  0  0  0  0  0  0  0  0  0  0  0
  -12.5443  -24.3176  -37.5657 H   0  0  0  0  0  0  0  0  0  0  0  0
  -14.3454  -23.5540  -38.2223 H   0  0  0  0  0  0  0  0  0  0  0  0
  1  2  2  0  0  0  0
  1  3  1  0  0  0  0
  2  4  1  0  0  0  0
  3 12  2  0  0  0  0
  4 13  2  0  0  0  0
  5  8  1  0  0  0  0
  5 14  2  0  0  0  0
  6  9  2  0  0  0  0
  6 14  1  0  0  0  0
  7 10  1  0  0  0  0
  7 15  2  0  0  0  0
  8 16  2  0  0  0  0
  9 16  1  0  0  0  0
 10 17  2  0  0  0  0
 11 15  1  0  0  0  0
 11 18  2  0  0  0  0
 12 13  1  0  0  0  0
 12 22  1  0  0  0  0
 13 23  1  0  0  0  0
 14 24  1  0  0  0  0
 15 25  1  0  0  0  0
 16 26  1  0  0  0  0
 17 18  1  0  0  0  0
 17 28  1  0  0  0  0
 18 29  1  0  0  0  0
 19 21  1  0  0  0  0
 19 22  2  0  0  0  0
 19 23  1  0  0  0  0
 20 24  1  0  0  0  0
 20 25  1  0  0  0  0
 20 27  2  0  0  0  0
 21 26  1  0  0  0  0
  1 30  1  0  0  0  0
  2 31  1  0  0  0  0
  3 32  1  0  0  0  0
  4 33  1  0  0  0  0
  5 34  1  0  0  0  0
  6 35  1  0  0  0  0
  7 36  1  0  0  0  0
  8 37  1  0  0  0  0
  9 38  1  0  0  0  0
 10 39  1  0  0  0  0
 11 40  1  0  0  0  0
 21 41  1  0  0  0  0
 21 42  1  0  0  0  0
 23 43  1  0  0  0  0
 24 44  1  0  0  0  0
 25 45  1  0  0  0  0
M  END
> <Name>
EZ_21

> <SourceTag>
EZ_21

> <Activity_sEH>
270.9

> <Activity_FLAP>
0.5

> <Gold.Version>
5.2

> <Gold.Id.Protein>
6HGV|6HGV_protein|mol2

> <Gold.PLP.Fitness>
85.6379

> <Gold.PLP.PLP>
-84.9373

> <Gold.PLP.part.hbond>
-8.2144

> <Gold.PLP.part.metal>
0.0000

> <Gold.PLP.part.buried>
11.8197

> <Gold.PLP.part.nonpolar>
-86.6110

> <Gold.PLP.part.repulsive>
0.0406

> <Gold.PLP.ligand.clash>
0.8675

> <Gold.PLP.ligand.torsion>
1.3241

> <Gold.PLP.Chemscore.Hbond>
0.6670

> <Gold.PLP.Chemscore.CHOScore>
0.0000

> <Gold.PLP.Chemscore.Metal>
0.0000

> <Gold.Chemscore.Hbonds>
donor molecule, donor type, donor heavy atom, donor atom, acceptor molecule, acceptor atom, score
      L1  H    24    44       P1  1931  0.35
      P1  H  1247  3847       L1    27  0.31

> <Gold.PLP.Chemscore.Internal.Correction>
0.6643

> <Gold.Protein.RotatedTorsions>
[ 3525  925  924  922 ] final -129.81 input   59.99 | X-H torsion
[ 3781 1176 1175 1172 ] final  169.93 input   60.00 | X-H torsion
[ 4531 1957 1955 1953 ] final  106.50 input   60.00 | X-H torsion
[ 3847 1247 1246 1244 ] final  -70.55 input   60.00 | X-H torsion
[ 4507 1931 1930 1928 ] final -125.49 input   60.00 | X-H torsion
[ 3677 1070 1069 1066 ] final   63.65 input   60.00 | X-H torsion

> <Gold.Protein.ActiveResidues>
 GLY266  PHE267  PRO268  GLU269  MET310  HIS334  ASP335  TRP336  GLY337  GLY338 
 MET339  LEU340  TRP342  TYR343  LEU358  ASN359  THR360  PRO361  ILE363  ALA365 
 MET369  SER370  PRO371  LEU372  GLU373  SER374  ILE375  LYS376  ALA377  ASN378 
 VAL380  PHE381  ASP382  TYR383  GLN384  PHE387  GLN388  LEU397  SER407  LEU408 
 PHE409  ARG410  LEU417  MET419  LEU428  PHE429  PHE459  TRP465  TYR466  ASN468 
 MET469  GLU470  ASN472  TRP473  ALA476  ASP496  PHE497  VAL498  LEU499  MET503 
 HIS524  TRP525 

> <Gold.Protein.RotatedAtoms>
   -2.8756  -29.9947  -29.0083 H   0  0  0  0  0  0  0  0  0  0  0  0  # atno 3525 bound_to 925 
  -12.3924  -22.4069  -30.3264 H   0  0  0  0  0  0  0  0  0  0  0  0  # atno 3677 bound_to 1070
   -9.3211  -36.6035  -32.7272 H   0  0  0  0  0  0  0  0  0  0  0  0  # atno 3781 bound_to 1176
  -16.0301  -27.7166  -37.3123 H   0  0  0  0  0  0  0  0  0  0  0  0  # atno 3847 bound_to 1247
  -13.4419  -24.4150  -40.4774 H   0  0  0  0  0  0  0  0  0  0  0  0  # atno 4507 bound_to 1931
   -2.5829  -33.9738  -36.7666 H   0  0  0  0  0  0  0  0  0  0  0  0  # atno 4531 bound_to 1957
   -2.1856  -30.1641  -30.4722 LP  0  0  0  0  0  0  0  0  0  0  0  0  # atno 5201 bound_to 925 
   -3.6820  -29.5237  -30.3409 LP  0  0  0  0  0  0  0  0  0  0  0  0  # atno 5202 bound_to 925 
  -10.6985  -37.4499  -32.9130 LP  0  0  0  0  0  0  0  0  0  0  0  0  # atno 5205 bound_to 1176
  -10.0961  -36.5817  -34.1579 LP  0  0  0  0  0  0  0  0  0  0  0  0  # atno 5206 bound_to 1176
   -2.6961  -32.3512  -36.7146 LP  0  0  0  0  0  0  0  0  0  0  0  0  # atno 5213 bound_to 1957
   -1.2546  -33.0632  -37.0009 LP  0  0  0  0  0  0  0  0  0  0  0  0  # atno 5214 bound_to 1957
  -14.5425  -27.5606  -37.9531 LP  0  0  0  0  0  0  0  0  0  0  0  0  # atno 5227 bound_to 1247
  -14.9858  -28.9626  -37.2428 LP  0  0  0  0  0  0  0  0  0  0  0  0  # atno 5228 bound_to 1247
  -12.4331  -23.9768  -39.2781 LP  0  0  0  0  0  0  0  0  0  0  0  0  # atno 5245 bound_to 1931
  -13.3172  -25.3435  -39.1468 LP  0  0  0  0  0  0  0  0  0  0  0  0  # atno 5246 bound_to 1931
  -12.3738  -23.8156  -31.1408 LP  0  0  0  0  0  0  0  0  0  0  0  0  # atno 5265 bound_to 1070
  -11.0848  -22.8152  -31.2048 LP  0  0  0  0  0  0  0  0  0  0  0  0  # atno 5266 bound_to 1070

$$$$
EZ_21|Lisa_paper2_min|sdf|9|dock3
  -GOLD-  10202014353D 1   1.00000     0.00000

 45 48  0  0  0  0  0  0  0  0  1 V2000
   -3.0596  -30.5991  -33.3014 C   0  0  0  0  0  0  0  0  0  0  0  0
   -3.3445  -31.8441  -33.8671 C   0  0  0  0  0  0  0  0  0  0  0  0
   -4.0128  -29.5730  -33.2981 C   0  0  0  0  0  0  0  0  0  0  0  0
   -4.5887  -32.1094  -34.4486 C   0  0  0  0  0  0  0  0  0  0  0  0
  -11.0763  -25.1950  -35.2472 C   0  0  0  0  0  0  0  0  0  0  0  0
  -11.5415  -27.0178  -36.7632 C   0  0  0  0  0  0  0  0  0  0  0  0
  -16.4149  -23.2215  -39.4433 C   0  0  0  0  0  0  0  0  0  0  0  0
  -10.1203  -25.9775  -34.5996 C   0  0  0  0  0  0  0  0  0  0  0  0
  -10.5855  -27.8003  -36.1157 C   0  0  0  0  0  0  0  0  0  0  0  0
  -17.7429  -23.0894  -39.8489 C   0  0  0  0  0  0  0  0  0  0  0  0
  -17.1167  -24.6158  -37.5993 C   0  0  0  0  0  0  0  0  0  0  0  0
   -5.2681  -29.8221  -33.8783 C   0  0  0  0  0  0  0  0  0  0  0  0
   -5.5224  -31.0728  -34.4341 C   0  0  0  0  0  0  0  0  0  0  0  0
  -11.7869  -25.7151  -36.3291 C   0  0  0  0  0  0  0  0  0  0  0  0
  -16.1018  -23.9847  -38.3185 C   0  0  0  0  0  0  0  0  0  0  0  0
   -9.8748  -27.2801  -35.0338 C   0  0  0  0  0  0  0  0  0  0  0  0
  -18.7580  -23.7204  -39.1297 C   0  0  0  0  0  0  0  0  0  0  0  0
  -18.4449  -24.4836  -38.0049 C   0  0  0  0  0  0  0  0  0  0  0  0
   -7.2674  -29.7258  -34.6220 C   0  0  0  0  0  0  0  0  0  0  0  0
  -14.1089  -25.1321  -37.2191 C   0  0  0  0  0  0  0  0  0  0  0  0
   -8.6302  -29.3063  -34.9988 C   0  0  0  0  0  0  0  0  0  0  0  0
   -6.3634  -28.9988  -34.0042 N   0  0  0  0  0  0  0  0  0  0  0  0
   -6.8084  -30.9827  -34.9020 N   0  0  0  0  0  0  0  0  0  0  0  0
  -12.7432  -24.9326  -36.9768 N   0  0  0  0  0  0  0  0  0  0  0  0
  -14.7521  -24.1192  -37.9070 N   0  0  0  0  0  0  0  0  0  0  0  0
   -8.9376  -28.0474  -34.3989 O   0  0  0  0  0  0  0  0  0  0  0  0
  -14.8256  -26.4935  -36.5311 S   0  0  0  0  0  0  0  0  0  0  0  0
  -20.3836  -23.5160  -39.6808 Cl  0  0  0  0  0  0  0  0  0  0  0  0
  -19.6580  -25.2875  -37.0716 Cl  0  0  0  0  0  0  0  0  0  0  0  0
   -2.0835  -30.4233  -32.8563 H   0  0  0  0  0  0  0  0  0  0  0  0
   -2.5847  -32.6218  -33.8566 H   0  0  0  0  0  0  0  0  0  0  0  0
   -3.7815  -28.6097  -32.8550 H   0  0  0  0  0  0  0  0  0  0  0  0
   -4.8118  -33.0753  -34.8872 H   0  0  0  0  0  0  0  0  0  0  0  0
  -11.2593  -24.1811  -34.9005 H   0  0  0  0  0  0  0  0  0  0  0  0
  -12.0892  -27.4336  -37.6050 H   0  0  0  0  0  0  0  0  0  0  0  0
  -15.6315  -22.7268  -40.0118 H   0  0  0  0  0  0  0  0  0  0  0  0
   -9.5700  -25.5667  -33.7576 H   0  0  0  0  0  0  0  0  0  0  0  0
  -10.3988  -28.8143  -36.4584 H   0  0  0  0  0  0  0  0  0  0  0  0
  -17.9684  -22.4919  -40.7288 H   0  0  0  0  0  0  0  0  0  0  0  0
  -16.8665  -25.2088  -36.7218 H   0  0  0  0  0  0  0  0  0  0  0  0
   -8.7464  -29.1984  -36.0921 H   0  0  0  0  0  0  0  0  0  0  0  0
   -9.3926  -30.0356  -34.6714 H   0  0  0  0  0  0  0  0  0  0  0  0
   -7.3229  -31.7172  -35.3697 H   0  0  0  0  0  0  0  0  0  0  0  0
  -12.4103  -24.0242  -37.3223 H   0  0  0  0  0  0  0  0  0  0  0  0
  -14.1892  -23.2868  -38.0640 H   0  0  0  0  0  0  0  0  0  0  0  0
  1  2  2  0  0  0  0
  1  3  1  0  0  0  0
  2  4  1  0  0  0  0
  3 12  2  0  0  0  0
  4 13  2  0  0  0  0
  5  8  1  0  0  0  0
  5 14  2  0  0  0  0
  6  9  2  0  0  0  0
  6 14  1  0  0  0  0
  7 10  1  0  0  0  0
  7 15  2  0  0  0  0
  8 16  2  0  0  0  0
  9 16  1  0  0  0  0
 10 17  2  0  0  0  0
 11 15  1  0  0  0  0
 11 18  2  0  0  0  0
 12 13  1  0  0  0  0
 12 22  1  0  0  0  0
 13 23  1  0  0  0  0
 14 24  1  0  0  0  0
 15 25  1  0  0  0  0
 16 26  1  0  0  0  0
 17 18  1  0  0  0  0
 17 28  1  0  0  0  0
 18 29  1  0  0  0  0
 19 21  1  0  0  0  0
 19 22  2  0  0  0  0
 19 23  1  0  0  0  0
 20 24  1  0  0  0  0
 20 25  1  0  0  0  0
 20 27  2  0  0  0  0
 21 26  1  0  0  0  0
  1 30  1  0  0  0  0
  2 31  1  0  0  0  0
  3 32  1  0  0  0  0
  4 33  1  0  0  0  0
  5 34  1  0  0  0  0
  6 35  1  0  0  0  0
  7 36  1  0  0  0  0
  8 37  1  0  0  0  0
  9 38  1  0  0  0  0
 10 39  1  0  0  0  0
 11 40  1  0  0  0  0
 21 41  1  0  0  0  0
 21 42  1  0  0  0  0
 23 43  1  0  0  0  0
 24 44  1  0  0  0  0
 25 45  1  0  0  0  0
M  END
> <Name>
EZ_21

> <SourceTag>
EZ_21

> <Activity_sEH>
270.9

> <Activity_FLAP>
0.5

> <Gold.Version>
5.2

> <Gold.Id.Protein>
6HGV|6HGV_protein|mol2

> <Gold.PLP.Fitness>
84.9352

> <Gold.PLP.PLP>
-84.6619

> <Gold.PLP.part.hbond>
-9.7360

> <Gold.PLP.part.metal>
0.0000

> <Gold.PLP.part.buried>
11.2833

> <Gold.PLP.part.nonpolar>
-87.2747

> <Gold.PLP.part.repulsive>
0.0475

> <Gold.PLP.ligand.clash>
1.4794

> <Gold.PLP.ligand.torsion>
0.9762

> <Gold.PLP.Chemscore.Hbond>
0.6356

> <Gold.PLP.Chemscore.CHOScore>
0.0000

> <Gold.PLP.Chemscore.Metal>
0.0000

> <Gold.Chemscore.Hbonds>
donor molecule, donor type, donor heavy atom, donor atom, acceptor molecule, acceptor atom, score
      L1  H    24    44       P1   854  0.17
      L1  H    25    45       P1   854  0.03
      P1  H  1247  3847       L1    27  0.43

> <Gold.PLP.Chemscore.Internal.Correction>
0.6059

> <Gold.Protein.RotatedTorsions>
[ 3525  925  924  922 ] final  -55.98 input   59.99 | X-H torsion
[ 3781 1176 1175 1172 ] final -173.04 input   60.00 | X-H torsion
[ 4531 1957 1955 1953 ] final  -67.58 input   60.00 | X-H torsion
[ 3847 1247 1246 1244 ] final -100.93 input   60.00 | X-H torsion
[ 4507 1931 1930 1928 ] final    9.06 input   60.00 | X-H torsion
[ 3677 1070 1069 1066 ] final   51.10 input   60.00 | X-H torsion

> <Gold.Protein.ActiveResidues>
 GLY266  PHE267  PRO268  GLU269  MET310  HIS334  ASP335  TRP336  GLY337  GLY338 
 MET339  LEU340  TRP342  TYR343  LEU358  ASN359  THR360  PRO361  ILE363  ALA365 
 MET369  SER370  PRO371  LEU372  GLU373  SER374  ILE375  LYS376  ALA377  ASN378 
 VAL380  PHE381  ASP382  TYR383  GLN384  PHE387  GLN388  LEU397  SER407  LEU408 
 PHE409  ARG410  LEU417  MET419  LEU428  PHE429  PHE459  TRP465  TYR466  ASN468 
 MET469  GLU470  ASN472  TRP473  ALA476  ASP496  PHE497  VAL498  LEU499  MET503 
 HIS524  TRP525 

> <Gold.Protein.RotatedAtoms>
   -3.7271  -29.5687  -29.6068 H   0  0  0  0  0  0  0  0  0  0  0  0  # atno 3525 bound_to 925 
  -12.5424  -22.5460  -30.3318 H   0  0  0  0  0  0  0  0  0  0  0  0  # atno 3677 bound_to 1070
   -9.2513  -36.4698  -32.9600 H   0  0  0  0  0  0  0  0  0  0  0  0  # atno 3781 bound_to 1176
  -15.7862  -27.3600  -37.5444 H   0  0  0  0  0  0  0  0  0  0  0  0  # atno 3847 bound_to 1247
  -13.1597  -25.2522  -38.9934 H   0  0  0  0  0  0  0  0  0  0  0  0  # atno 4507 bound_to 1931
   -1.8628  -32.2512  -36.8737 H   0  0  0  0  0  0  0  0  0  0  0  0  # atno 4531 bound_to 1957
   -2.2648  -30.2327  -29.3446 LP  0  0  0  0  0  0  0  0  0  0  0  0  # atno 5201 bound_to 925 
   -2.7454  -29.8840  -30.8658 LP  0  0  0  0  0  0  0  0  0  0  0  0  # atno 5202 bound_to 925 
  -10.5378  -37.4278  -32.6856 LP  0  0  0  0  0  0  0  0  0  0  0  0  # atno 5205 bound_to 1176
  -10.3272  -36.7384  -34.1509 LP  0  0  0  0  0  0  0  0  0  0  0  0  # atno 5206 bound_to 1176
   -1.5847  -33.8527  -36.9518 LP  0  0  0  0  0  0  0  0  0  0  0  0  # atno 5213 bound_to 1957
   -3.0911  -33.2962  -36.6558 LP  0  0  0  0  0  0  0  0  0  0  0  0  # atno 5214 bound_to 1957
  -14.3247  -27.9964  -37.8719 LP  0  0  0  0  0  0  0  0  0  0  0  0  # atno 5227 bound_to 1247
  -15.4493  -28.8858  -37.0902 LP  0  0  0  0  0  0  0  0  0  0  0  0  # atno 5228 bound_to 1247
  -13.5623  -24.6161  -40.4361 LP  0  0  0  0  0  0  0  0  0  0  0  0  # atno 5245 bound_to 1931
  -12.4721  -23.8611  -39.4833 LP  0  0  0  0  0  0  0  0  0  0  0  0  # atno 5246 bound_to 1931
  -12.1992  -23.8483  -31.2452 LP  0  0  0  0  0  0  0  0  0  0  0  0  # atno 5265 bound_to 1070
  -11.1083  -22.6425  -31.0948 LP  0  0  0  0  0  0  0  0  0  0  0  0  # atno 5266 bound_to 1070

$$$$
EZ_21|Lisa_paper2_min|sdf|9|dock8
  -GOLD-  10202014363D 1   1.00000     0.00000

 45 48  0  0  0  0  0  0  0  0  1 V2000
   -4.6008  -30.8896  -35.6323 C   0  0  0  0  0  0  0  0  0  0  0  0
   -5.1007  -32.1870  -35.4987 C   0  0  0  0  0  0  0  0  0  0  0  0
   -5.3942  -29.7759  -35.3294 C   0  0  0  0  0  0  0  0  0  0  0  0
   -6.4080  -32.4192  -35.0585 C   0  0  0  0  0  0  0  0  0  0  0  0
  -11.6363  -25.5049  -36.0640 C   0  0  0  0  0  0  0  0  0  0  0  0
  -13.0799  -27.4245  -35.8026 C   0  0  0  0  0  0  0  0  0  0  0  0
  -17.4357  -23.7878  -39.6438 C   0  0  0  0  0  0  0  0  0  0  0  0
  -10.7114  -26.0818  -35.1940 C   0  0  0  0  0  0  0  0  0  0  0  0
  -12.1549  -28.0015  -34.9326 C   0  0  0  0  0  0  0  0  0  0  0  0
  -18.7704  -23.4688  -39.8933 C   0  0  0  0  0  0  0  0  0  0  0  0
  -18.0780  -24.8568  -37.5746 C   0  0  0  0  0  0  0  0  0  0  0  0
   -6.7101  -29.9908  -34.8860 C   0  0  0  0  0  0  0  0  0  0  0  0
   -7.1800  -31.2953  -34.7627 C   0  0  0  0  0  0  0  0  0  0  0  0
  -12.8207  -26.1762  -36.3684 C   0  0  0  0  0  0  0  0  0  0  0  0
  -17.0895  -24.4817  -38.4843 C   0  0  0  0  0  0  0  0  0  0  0  0
  -10.9705  -27.3302  -34.6283 C   0  0  0  0  0  0  0  0  0  0  0  0
  -19.7591  -23.8438  -38.9836 C   0  0  0  0  0  0  0  0  0  0  0  0
  -19.4128  -24.5378  -37.8241 C   0  0  0  0  0  0  0  0  0  0  0  0
   -8.7223  -29.8148  -34.1933 C   0  0  0  0  0  0  0  0  0  0  0  0
  -15.1359  -25.4403  -37.1569 C   0  0  0  0  0  0  0  0  0  0  0  0
  -10.0333  -29.3229  -33.7303 C   0  0  0  0  0  0  0  0  0  0  0  0
   -7.6819  -29.0848  -34.5279 N   0  0  0  0  0  0  0  0  0  0  0  0
   -8.4693  -31.1526  -34.3179 N   0  0  0  0  0  0  0  0  0  0  0  0
  -13.7460  -25.5990  -37.2385 N   0  0  0  0  0  0  0  0  0  0  0  0
  -15.7331  -24.8063  -38.2314 N   0  0  0  0  0  0  0  0  0  0  0  0
  -10.0637  -27.8960  -33.7752 O   0  0  0  0  0  0  0  0  0  0  0  0
  -15.8844  -25.9044  -35.7200 S   0  0  0  0  0  0  0  0  0  0  0  0
  -21.3940  -23.4167  -39.3479 Cl  0  0  0  0  0  0  0  0  0  0  0  0
  -20.5918  -25.0275  -36.6582 Cl  0  0  0  0  0  0  0  0  0  0  0  0
   -3.5802  -30.7412  -35.9763 H   0  0  0  0  0  0  0  0  0  0  0  0
   -4.4626  -33.0329  -35.7424 H   0  0  0  0  0  0  0  0  0  0  0  0
   -4.9956  -28.7721  -35.4359 H   0  0  0  0  0  0  0  0  0  0  0  0
   -6.7973  -33.4255  -34.9532 H   0  0  0  0  0  0  0  0  0  0  0  0
  -11.4240  -24.5316  -36.4993 H   0  0  0  0  0  0  0  0  0  0  0  0
  -13.9994  -27.9567  -36.0323 H   0  0  0  0  0  0  0  0  0  0  0  0
  -16.6733  -23.4922  -40.3600 H   0  0  0  0  0  0  0  0  0  0  0  0
   -9.7906  -25.5541  -34.9609 H   0  0  0  0  0  0  0  0  0  0  0  0
  -12.3624  -28.9742  -34.4949 H   0  0  0  0  0  0  0  0  0  0  0  0
  -19.0221  -22.9288  -40.8028 H   0  0  0  0  0  0  0  0  0  0  0  0
  -17.8017  -25.3968  -36.6711 H   0  0  0  0  0  0  0  0  0  0  0  0
  -10.8642  -29.6996  -34.3533 H   0  0  0  0  0  0  0  0  0  0  0  0
  -10.2498  -29.6365  -32.6934 H   0  0  0  0  0  0  0  0  0  0  0  0
   -9.1152  -31.9048  -34.1178 H   0  0  0  0  0  0  0  0  0  0  0  0
  -13.3510  -25.1816  -38.0900 H   0  0  0  0  0  0  0  0  0  0  0  0
  -15.0840  -24.4225  -38.9139 H   0  0  0  0  0  0  0  0  0  0  0  0
  1  2  2  0  0  0  0
  1  3  1  0  0  0  0
  2  4  1  0  0  0  0
  3 12  2  0  0  0  0
  4 13  2  0  0  0  0
  5  8  1  0  0  0  0
  5 14  2  0  0  0  0
  6  9  2  0  0  0  0
  6 14  1  0  0  0  0
  7 10  1  0  0  0  0
  7 15  2  0  0  0  0
  8 16  2  0  0  0  0
  9 16  1  0  0  0  0
 10 17  2  0  0  0  0
 11 15  1  0  0  0  0
 11 18  2  0  0  0  0
 12 13  1  0  0  0  0
 12 22  1  0  0  0  0
 13 23  1  0  0  0  0
 14 24  1  0  0  0  0
 15 25  1  0  0  0  0
 16 26  1  0  0  0  0
 17 18  1  0  0  0  0
 17 28  1  0  0  0  0
 18 29  1  0  0  0  0
 19 21  1  0  0  0  0
 19 22  2  0  0  0  0
 19 23  1  0  0  0  0
 20 24  1  0  0  0  0
 20 25  1  0  0  0  0
 20 27  2  0  0  0  0
 21 26  1  0  0  0  0
  1 30  1  0  0  0  0
  2 31  1  0  0  0  0
  3 32  1  0  0  0  0
  4 33  1  0  0  0  0
  5 34  1  0  0  0  0
  6 35  1  0  0  0  0
  7 36  1  0  0  0  0
  8 37  1  0  0  0  0
  9 38  1  0  0  0  0
 10 39  1  0  0  0  0
 11 40  1  0  0  0  0
 21 41  1  0  0  0  0
 21 42  1  0  0  0  0
 23 43  1  0  0  0  0
 24 44  1  0  0  0  0
 25 45  1  0  0  0  0
M  END
> <Name>
EZ_21

> <SourceTag>
EZ_21

> <Activity_sEH>
270.9

> <Activity_FLAP>
0.5

> <Gold.Version>
5.2

> <Gold.Id.Protein>
6HGV|6HGV_protein|mol2

> <Gold.PLP.Fitness>
84.7742

> <Gold.PLP.PLP>
-82.0798

> <Gold.PLP.part.hbond>
-5.6879

> <Gold.PLP.part.metal>
0.0000

> <Gold.PLP.part.buried>
5.1409

> <Gold.PLP.part.nonpolar>
-80.9994

> <Gold.PLP.part.repulsive>
0.0227

> <Gold.PLP.ligand.clash>
0.0000

> <Gold.PLP.ligand.torsion>
1.1610

> <Gold.PLP.Chemscore.Hbond>
0.9845

> <Gold.PLP.Chemscore.CHOScore>
0.0000

> <Gold.PLP.Chemscore.Metal>
0.0000

> <Gold.Chemscore.Hbonds>
donor molecule, donor type, donor heavy atom, donor atom, acceptor molecule, acceptor atom, score
      L1  H    24    44       P1  1931  0.98
      L1  H    25    45       P1  1931  0.01

> <Gold.PLP.Chemscore.Internal.Correction>
0.5672

> <Gold.Protein.RotatedTorsions>
[ 3525  925  924  922 ] final  -48.94 input   59.99 | X-H torsion
[ 3781 1176 1175 1172 ] final -142.65 input   60.00 | X-H torsion
[ 4531 1957 1955 1953 ] final  -98.59 input   60.00 | X-H torsion
[ 3847 1247 1246 1244 ] final  -20.10 input   60.00 | X-H torsion
[ 4507 1931 1930 1928 ] final -179.76 input   60.00 | X-H torsion
[ 3677 1070 1069 1066 ] final  -94.66 input   60.00 | X-H torsion

> <Gold.Protein.ActiveResidues>
 GLY266  PHE267  PRO268  GLU269  MET310  HIS334  ASP335  TRP336  GLY337  GLY338 
 MET339  LEU340  TRP342  TYR343  LEU358  ASN359  THR360  PRO361  ILE363  ALA365 
 MET369  SER370  PRO371  LEU372  GLU373  SER374  ILE375  LYS376  ALA377  ASN378 
 VAL380  PHE381  ASP382  TYR383  GLN384  PHE387  GLN388  LEU397  SER407  LEU408 
 PHE409  ARG410  LEU417  MET419  LEU428  PHE429  PHE459  TRP465  TYR466  ASN468 
 MET469  GLU470  ASN472  TRP473  ALA476  ASP496  PHE497  VAL498  LEU499  MET503 
 HIS524  TRP525 

> <Gold.Protein.RotatedAtoms>
   -3.7547  -29.5466  -29.7163 H   0  0  0  0  0  0  0  0  0  0  0  0  # atno 3525 bound_to 925 
  -11.8134  -23.7860  -31.3964 H   0  0  0  0  0  0  0  0  0  0  0  0  # atno 3677 bound_to 1070
   -9.2980  -36.3261  -33.4268 H   0  0  0  0  0  0  0  0  0  0  0  0  # atno 3781 bound_to 1176
  -15.9204  -28.4682  -37.0678 H   0  0  0  0  0  0  0  0  0  0  0  0  # atno 3847 bound_to 1247
  -12.8732  -23.8472  -40.1888 H   0  0  0  0  0  0  0  0  0  0  0  0  # atno 4507 bound_to 1931
   -1.4631  -32.5413  -36.9547 H   0  0  0  0  0  0  0  0  0  0  0  0  # atno 4531 bound_to 1957
   -2.3397  -30.2078  -29.2598 LP  0  0  0  0  0  0  0  0  0  0  0  0  # atno 5201 bound_to 925 
   -2.6427  -29.9311  -30.8404 LP  0  0  0  0  0  0  0  0  0  0  0  0  # atno 5202 bound_to 925 
  -10.1536  -37.2723  -32.4165 LP  0  0  0  0  0  0  0  0  0  0  0  0  # atno 5205 bound_to 1176
  -10.6643  -37.0386  -33.9499 LP  0  0  0  0  0  0  0  0  0  0  0  0  # atno 5206 bound_to 1176
   -2.0357  -34.0622  -36.8697 LP  0  0  0  0  0  0  0  0  0  0  0  0  # atno 5213 bound_to 1957
   -3.0427  -32.7946  -36.6564 LP  0  0  0  0  0  0  0  0  0  0  0  0  # atno 5214 bound_to 1957
  -15.2442  -27.1926  -37.8185 LP  0  0  0  0  0  0  0  0  0  0  0  0  # atno 5227 bound_to 1247
  -14.3947  -28.5735  -37.6236 LP  0  0  0  0  0  0  0  0  0  0  0  0  # atno 5228 bound_to 1247
  -12.6356  -24.6630  -38.8010 LP  0  0  0  0  0  0  0  0  0  0  0  0  # atno 5245 bound_to 1931
  -13.6873  -25.2292  -39.9145 LP  0  0  0  0  0  0  0  0  0  0  0  0  # atno 5246 bound_to 1931
  -11.2796  -22.3512  -30.8447 LP  0  0  0  0  0  0  0  0  0  0  0  0  # atno 5265 bound_to 1070
  -12.7620  -22.8909  -30.4233 LP  0  0  0  0  0  0  0  0  0  0  0  0  # atno 5266 bound_to 1070

$$$$
EZ_21|Lisa_paper2_min|sdf|9|dock5
  -GOLD-  10202014353D 1   1.00000     0.00000

 45 48  0  0  0  0  0  0  0  0  1 V2000
   -4.5210  -31.0624  -35.5328 C   0  0  0  0  0  0  0  0  0  0  0  0
   -5.0791  -32.3426  -35.5121 C   0  0  0  0  0  0  0  0  0  0  0  0
   -5.2919  -29.9341  -35.2259 C   0  0  0  0  0  0  0  0  0  0  0  0
   -6.4243  -32.5427  -35.1846 C   0  0  0  0  0  0  0  0  0  0  0  0
  -11.6782  -25.4228  -36.0464 C   0  0  0  0  0  0  0  0  0  0  0  0
  -13.0593  -27.4020  -35.9335 C   0  0  0  0  0  0  0  0  0  0  0  0
  -17.5613  -23.5793  -39.4142 C   0  0  0  0  0  0  0  0  0  0  0  0
  -10.7267  -26.0403  -35.2347 C   0  0  0  0  0  0  0  0  0  0  0  0
  -12.1078  -28.0195  -35.1219 C   0  0  0  0  0  0  0  0  0  0  0  0
  -18.9048  -23.2612  -39.6127 C   0  0  0  0  0  0  0  0  0  0  0  0
  -18.1419  -24.7711  -37.3944 C   0  0  0  0  0  0  0  0  0  0  0  0
   -6.6453  -30.1167  -34.8949 C   0  0  0  0  0  0  0  0  0  0  0  0
   -7.1729  -31.4048  -34.8826 C   0  0  0  0  0  0  0  0  0  0  0  0
  -12.8445  -26.1036  -36.3959 C   0  0  0  0  0  0  0  0  0  0  0  0
  -17.1798  -24.3342  -38.3050 C   0  0  0  0  0  0  0  0  0  0  0  0
  -10.9414  -27.3388  -34.7724 C   0  0  0  0  0  0  0  0  0  0  0  0
  -19.8670  -23.6980  -38.7021 C   0  0  0  0  0  0  0  0  0  0  0  0
  -19.4855  -24.4530  -37.5929 C   0  0  0  0  0  0  0  0  0  0  0  0
   -8.6965  -29.8933  -34.3450 C   0  0  0  0  0  0  0  0  0  0  0  0
  -15.1854  -25.3482  -37.0841 C   0  0  0  0  0  0  0  0  0  0  0  0
  -10.0193  -29.3720  -33.9532 C   0  0  0  0  0  0  0  0  0  0  0  0
   -7.6062  -29.1911  -34.5583 N   0  0  0  0  0  0  0  0  0  0  0  0
   -8.4862  -31.2317  -34.5276 N   0  0  0  0  0  0  0  0  0  0  0  0
  -13.7963  -25.4859  -37.2077 N   0  0  0  0  0  0  0  0  0  0  0  0
  -15.8146  -24.6578  -38.1040 N   0  0  0  0  0  0  0  0  0  0  0  0
  -10.0086  -27.9443  -33.9765 O   0  0  0  0  0  0  0  0  0  0  0  0
  -15.8942  -25.9063  -35.6605 S   0  0  0  0  0  0  0  0  0  0  0  0
  -21.5144  -23.2687  -39.0016 Cl  0  0  0  0  0  0  0  0  0  0  0  0
  -20.6303  -25.0210  -36.4285 Cl  0  0  0  0  0  0  0  0  0  0  0  0
   -3.4721  -30.9390  -35.7907 H   0  0  0  0  0  0  0  0  0  0  0  0
   -4.4571  -33.2004  -35.7561 H   0  0  0  0  0  0  0  0  0  0  0  0
   -4.8482  -28.9439  -35.2441 H   0  0  0  0  0  0  0  0  0  0  0  0
   -6.8588  -33.5357  -35.1670 H   0  0  0  0  0  0  0  0  0  0  0  0
  -11.5004  -24.4107  -36.4011 H   0  0  0  0  0  0  0  0  0  0  0  0
  -13.9644  -27.9421  -36.1993 H   0  0  0  0  0  0  0  0  0  0  0  0
  -16.8199  -23.2352  -40.1307 H   0  0  0  0  0  0  0  0  0  0  0  0
   -9.8202  -25.5049  -34.9660 H   0  0  0  0  0  0  0  0  0  0  0  0
  -12.2807  -29.0311  -34.7647 H   0  0  0  0  0  0  0  0  0  0  0  0
  -19.1842  -22.6732  -40.4834 H   0  0  0  0  0  0  0  0  0  0  0  0
  -17.8380  -25.3586  -36.5303 H   0  0  0  0  0  0  0  0  0  0  0  0
  -10.8210  -29.7163  -34.6308 H   0  0  0  0  0  0  0  0  0  0  0  0
  -10.3062  -29.6946  -32.9364 H   0  0  0  0  0  0  0  0  0  0  0  0
   -9.1739  -31.9656  -34.4200 H   0  0  0  0  0  0  0  0  0  0  0  0
  -13.4262  -25.0136  -38.0415 H   0  0  0  0  0  0  0  0  0  0  0  0
  -15.1860  -24.2263  -38.7772 H   0  0  0  0  0  0  0  0  0  0  0  0
  1  2  2  0  0  0  0
  1  3  1  0  0  0  0
  2  4  1  0  0  0  0
  3 12  2  0  0  0  0
  4 13  2  0  0  0  0
  5  8  1  0  0  0  0
  5 14  2  0  0  0  0
  6  9  2  0  0  0  0
  6 14  1  0  0  0  0
  7 10  1  0  0  0  0
  7 15  2  0  0  0  0
  8 16  2  0  0  0  0
  9 16  1  0  0  0  0
 10 17  2  0  0  0  0
 11 15  1  0  0  0  0
 11 18  2  0  0  0  0
 12 13  1  0  0  0  0
 12 22  1  0  0  0  0
 13 23  1  0  0  0  0
 14 24  1  0  0  0  0
 15 25  1  0  0  0  0
 16 26  1  0  0  0  0
 17 18  1  0  0  0  0
 17 28  1  0  0  0  0
 18 29  1  0  0  0  0
 19 21  1  0  0  0  0
 19 22  2  0  0  0  0
 19 23  1  0  0  0  0
 20 24  1  0  0  0  0
 20 25  1  0  0  0  0
 20 27  2  0  0  0  0
 21 26  1  0  0  0  0
  1 30  1  0  0  0  0
  2 31  1  0  0  0  0
  3 32  1  0  0  0  0
  4 33  1  0  0  0  0
  5 34  1  0  0  0  0
  6 35  1  0  0  0  0
  7 36  1  0  0  0  0
  8 37  1  0  0  0  0
  9 38  1  0  0  0  0
 10 39  1  0  0  0  0
 11 40  1  0  0  0  0
 21 41  1  0  0  0  0
 21 42  1  0  0  0  0
 23 43  1  0  0  0  0
 24 44  1  0  0  0  0
 25 45  1  0  0  0  0
M  END
> <Name>
EZ_21

> <SourceTag>
EZ_21

> <Activity_sEH>
270.9

> <Activity_FLAP>
0.5

> <Gold.Version>
5.2

> <Gold.Id.Protein>
6HGV|6HGV_protein|mol2

> <Gold.PLP.Fitness>
84.0586

> <Gold.PLP.PLP>
-81.3700

> <Gold.PLP.part.hbond>
-5.4275

> <Gold.PLP.part.metal>
0.0000

> <Gold.PLP.part.buried>
5.8365

> <Gold.PLP.part.nonpolar>
-82.5770

> <Gold.PLP.part.repulsive>
0.0181

> <Gold.PLP.ligand.clash>
0.0383

> <Gold.PLP.ligand.torsion>
1.1633

> <Gold.PLP.Chemscore.Hbond>
0.9905

> <Gold.PLP.Chemscore.CHOScore>
0.0000

> <Gold.PLP.Chemscore.Metal>
0.0000

> <Gold.Chemscore.Hbonds>
donor molecule, donor type, donor heavy atom, donor atom, acceptor molecule, acceptor atom, score
      L1  H    24    44       P1  1931  0.99

> <Gold.PLP.Chemscore.Internal.Correction>
0.5821

> <Gold.Protein.RotatedTorsions>
[ 3525  925  924  922 ] final    8.45 input   59.99 | X-H torsion
[ 3781 1176 1175 1172 ] final   30.32 input   60.00 | X-H torsion
[ 4531 1957 1955 1953 ] final  -41.19 input   60.00 | X-H torsion
[ 3847 1247 1246 1244 ] final  -32.48 input   60.00 | X-H torsion
[ 4507 1931 1930 1928 ] final -166.62 input   60.00 | X-H torsion
[ 3677 1070 1069 1066 ] final -170.69 input   60.00 | X-H torsion

> <Gold.Protein.ActiveResidues>
 GLY266  PHE267  PRO268  GLU269  MET310  HIS334  ASP335  TRP336  GLY337  GLY338 
 MET339  LEU340  TRP342  TYR343  LEU358  ASN359  THR360  PRO361  ILE363  ALA365 
 MET369  SER370  PRO371  LEU372  GLU373  SER374  ILE375  LYS376  ALA377  ASN378 
 VAL380  PHE381  ASP382  TYR383  GLN384  PHE387  GLN388  LEU397  SER407  LEU408 
 PHE409  ARG410  LEU417  MET419  LEU428  PHE429  PHE459  TRP465  TYR466  ASN468 
 MET469  GLU470  ASN472  TRP473  ALA476  ASP496  PHE497  VAL498  LEU499  MET503 
 HIS524  TRP525 

> <Gold.Protein.RotatedAtoms>
   -3.5133  -29.5727  -30.5819 H   0  0  0  0  0  0  0  0  0  0  0  0  # atno 3525 bound_to 925 
  -11.0928  -22.8985  -31.2453 H   0  0  0  0  0  0  0  0  0  0  0  0  # atno 3677 bound_to 1070
  -10.8044  -37.4113  -33.2125 H   0  0  0  0  0  0  0  0  0  0  0  0  # atno 3781 bound_to 1176
  -16.0078  -28.2895  -37.1019 H   0  0  0  0  0  0  0  0  0  0  0  0  # atno 3847 bound_to 1247
  -13.0153  -23.9401  -40.3195 H   0  0  0  0  0  0  0  0  0  0  0  0  # atno 4507 bound_to 1931
   -2.2798  -32.2011  -36.7936 H   0  0  0  0  0  0  0  0  0  0  0  0  # atno 4531 bound_to 1957
   -3.1489  -29.8765  -29.0253 LP  0  0  0  0  0  0  0  0  0  0  0  0  # atno 5201 bound_to 925 
   -2.0766  -30.2362  -30.2031 LP  0  0  0  0  0  0  0  0  0  0  0  0  # atno 5202 bound_to 925 
   -9.8251  -36.4341  -34.0693 LP  0  0  0  0  0  0  0  0  0  0  0  0  # atno 5205 bound_to 1176
   -9.4758  -36.7839  -32.5129 LP  0  0  0  0  0  0  0  0  0  0  0  0  # atno 5206 bound_to 1176
   -1.3307  -33.5077  -36.9942 LP  0  0  0  0  0  0  0  0  0  0  0  0  # atno 5213 bound_to 1957
   -2.9253  -33.6917  -36.6942 LP  0  0  0  0  0  0  0  0  0  0  0  0  # atno 5214 bound_to 1957
  -15.0535  -27.2260  -37.8805 LP  0  0  0  0  0  0  0  0  0  0  0  0  # atno 5227 bound_to 1247
  -14.4973  -28.7201  -37.5273 LP  0  0  0  0  0  0  0  0  0  0  0  0  # atno 5228 bound_to 1247
  -12.5401  -24.4785  -38.8592 LP  0  0  0  0  0  0  0  0  0  0  0  0  # atno 5245 bound_to 1931
  -13.6398  -25.3200  -39.7247 LP  0  0  0  0  0  0  0  0  0  0  0  0  # atno 5246 bound_to 1931
  -12.3209  -22.3476  -30.3308 LP  0  0  0  0  0  0  0  0  0  0  0  0  # atno 5265 bound_to 1070
  -12.4464  -23.7882  -31.0895 LP  0  0  0  0  0  0  0  0  0  0  0  0  # atno 5266 bound_to 1070

$$$$
EZ_21|Lisa_paper2_min|sdf|9|dock6
  -GOLD-  10202014363D 1   1.00000     0.00000

 45 48  0  0  0  0  0  0  0  0  1 V2000
   -4.5408  -31.2834  -35.4961 C   0  0  0  0  0  0  0  0  0  0  0  0
   -5.1848  -32.5229  -35.4895 C   0  0  0  0  0  0  0  0  0  0  0  0
   -5.2388  -30.1061  -35.1995 C   0  0  0  0  0  0  0  0  0  0  0  0
   -6.5462  -32.6317  -35.1871 C   0  0  0  0  0  0  0  0  0  0  0  0
  -11.7110  -25.4708  -36.3481 C   0  0  0  0  0  0  0  0  0  0  0  0
  -13.1446  -27.3388  -35.8071 C   0  0  0  0  0  0  0  0  0  0  0  0
  -17.9207  -23.7365  -39.1444 C   0  0  0  0  0  0  0  0  0  0  0  0
  -10.6860  -26.0382  -35.5913 C   0  0  0  0  0  0  0  0  0  0  0  0
  -12.1195  -27.9063  -35.0504 C   0  0  0  0  0  0  0  0  0  0  0  0
  -19.2817  -23.4491  -39.2469 C   0  0  0  0  0  0  0  0  0  0  0  0
  -18.3368  -24.9851  -37.1184 C   0  0  0  0  0  0  0  0  0  0  0  0
   -6.6073  -30.1969  -34.8936 C   0  0  0  0  0  0  0  0  0  0  0  0
   -7.2213  -31.4462  -34.8950 C   0  0  0  0  0  0  0  0  0  0  0  0
  -12.9405  -26.1210  -36.4560 C   0  0  0  0  0  0  0  0  0  0  0  0
  -17.4482  -24.5045  -38.0801 C   0  0  0  0  0  0  0  0  0  0  0  0
  -10.8901  -27.2560  -34.9425 C   0  0  0  0  0  0  0  0  0  0  0  0
  -20.1705  -23.9298  -38.2852 C   0  0  0  0  0  0  0  0  0  0  0  0
  -19.6980  -24.6978  -37.2209 C   0  0  0  0  0  0  0  0  0  0  0  0
   -8.6482  -29.8358  -34.3801 C   0  0  0  0  0  0  0  0  0  0  0  0
  -15.3432  -25.4337  -36.9836 C   0  0  0  0  0  0  0  0  0  0  0  0
   -9.9395  -29.2266  -34.0105 C   0  0  0  0  0  0  0  0  0  0  0  0
   -7.5091  -29.2088  -34.5714 N   0  0  0  0  0  0  0  0  0  0  0  0
   -8.5260  -31.1851  -34.5631 N   0  0  0  0  0  0  0  0  0  0  0  0
  -13.9659  -25.5535  -37.2129 N   0  0  0  0  0  0  0  0  0  0  0  0
  -16.0651  -24.7968  -37.9766 N   0  0  0  0  0  0  0  0  0  0  0  0
   -9.8851  -27.8124  -34.2005 O   0  0  0  0  0  0  0  0  0  0  0  0
  -15.9253  -25.9438  -35.4865 S   0  0  0  0  0  0  0  0  0  0  0  0
  -21.8441  -23.5370  -38.4660 Cl  0  0  0  0  0  0  0  0  0  0  0  0
  -20.7490  -25.3196  -35.9970 Cl  0  0  0  0  0  0  0  0  0  0  0  0
   -3.4814  -31.2311  -35.7346 H   0  0  0  0  0  0  0  0  0  0  0  0
   -4.6181  -33.4205  -35.7251 H   0  0  0  0  0  0  0  0  0  0  0  0
   -4.7286  -29.1482  -35.2065 H   0  0  0  0  0  0  0  0  0  0  0  0
   -7.0474  -33.5930  -35.1805 H   0  0  0  0  0  0  0  0  0  0  0  0
  -11.5409  -24.5215  -36.8497 H   0  0  0  0  0  0  0  0  0  0  0  0
  -14.0985  -27.8544  -35.8840 H   0  0  0  0  0  0  0  0  0  0  0  0
  -17.2370  -23.3583  -39.9001 H   0  0  0  0  0  0  0  0  0  0  0  0
   -9.7305  -25.5270  -35.5112 H   0  0  0  0  0  0  0  0  0  0  0  0
  -12.2846  -28.8550  -34.5472 H   0  0  0  0  0  0  0  0  0  0  0  0
  -19.6325  -22.8503  -40.0838 H   0  0  0  0  0  0  0  0  0  0  0  0
  -17.9622  -25.5826  -36.2896 H   0  0  0  0  0  0  0  0  0  0  0  0
  -10.7749  -29.6185  -34.6180 H   0  0  0  0  0  0  0  0  0  0  0  0
  -10.2004  -29.4194  -32.9546 H   0  0  0  0  0  0  0  0  0  0  0  0
   -9.2638  -31.8707  -34.4703 H   0  0  0  0  0  0  0  0  0  0  0  0
  -13.6728  -25.1101  -38.0920 H   0  0  0  0  0  0  0  0  0  0  0  0
  -15.5008  -24.3833  -38.7149 H   0  0  0  0  0  0  0  0  0  0  0  0
  1  2  2  0  0  0  0
  1  3  1  0  0  0  0
  2  4  1  0  0  0  0
  3 12  2  0  0  0  0
  4 13  2  0  0  0  0
  5  8  1  0  0  0  0
  5 14  2  0  0  0  0
  6  9  2  0  0  0  0
  6 14  1  0  0  0  0
  7 10  1  0  0  0  0
  7 15  2  0  0  0  0
  8 16  2  0  0  0  0
  9 16  1  0  0  0  0
 10 17  2  0  0  0  0
 11 15  1  0  0  0  0
 11 18  2  0  0  0  0
 12 13  1  0  0  0  0
 12 22  1  0  0  0  0
 13 23  1  0  0  0  0
 14 24  1  0  0  0  0
 15 25  1  0  0  0  0
 16 26  1  0  0  0  0
 17 18  1  0  0  0  0
 17 28  1  0  0  0  0
 18 29  1  0  0  0  0
 19 21  1  0  0  0  0
 19 22  2  0  0  0  0
 19 23  1  0  0  0  0
 20 24  1  0  0  0  0
 20 25  1  0  0  0  0
 20 27  2  0  0  0  0
 21 26  1  0  0  0  0
  1 30  1  0  0  0  0
  2 31  1  0  0  0  0
  3 32  1  0  0  0  0
  4 33  1  0  0  0  0
  5 34  1  0  0  0  0
  6 35  1  0  0  0  0
  7 36  1  0  0  0  0
  8 37  1  0  0  0  0
  9 38  1  0  0  0  0
 10 39  1  0  0  0  0
 11 40  1  0  0  0  0
 21 41  1  0  0  0  0
 21 42  1  0  0  0  0
 23 43  1  0  0  0  0
 24 44  1  0  0  0  0
 25 45  1  0  0  0  0
M  END
> <Name>
EZ_21

> <SourceTag>
EZ_21

> <Activity_sEH>
270.9

> <Activity_FLAP>
0.5

> <Gold.Version>
5.2

> <Gold.Id.Protein>
6HGV|6HGV_protein|mol2

> <Gold.PLP.Fitness>
83.4222

> <Gold.PLP.PLP>
-80.7502

> <Gold.PLP.part.hbond>
-5.4260

> <Gold.PLP.part.metal>
0.0000

> <Gold.PLP.part.buried>
4.2741

> <Gold.PLP.part.nonpolar>
-79.4090

> <Gold.PLP.part.repulsive>
0.0171

> <Gold.PLP.ligand.clash>
0.0000

> <Gold.PLP.ligand.torsion>
1.2073

> <Gold.PLP.Chemscore.Hbond>
0.9917

> <Gold.PLP.Chemscore.CHOScore>
0.0000

> <Gold.PLP.Chemscore.Metal>
0.0000

> <Gold.Chemscore.Hbonds>
donor molecule, donor type, donor heavy atom, donor atom, acceptor molecule, acceptor atom, score
      L1  H    24    44       P1  1931  0.99

> <Gold.PLP.Chemscore.Internal.Correction>
0.5672

> <Gold.Protein.RotatedTorsions>
[ 3525  925  924  922 ] final -100.56 input   59.99 | X-H torsion
[ 3781 1176 1175 1172 ] final   20.18 input   60.00 | X-H torsion
[ 4531 1957 1955 1953 ] final -110.45 input   60.00 | X-H torsion
[ 3847 1247 1246 1244 ] final  -26.92 input   60.00 | X-H torsion
[ 4507 1931 1930 1928 ] final -164.29 input   60.00 | X-H torsion
[ 3677 1070 1069 1066 ] final -135.88 input   60.00 | X-H torsion

> <Gold.Protein.ActiveResidues>
 GLY266  PHE267  PRO268  GLU269  MET310  HIS334  ASP335  TRP336  GLY337  GLY338 
 MET339  LEU340  TRP342  TYR343  LEU358  ASN359  THR360  PRO361  ILE363  ALA365 
 MET369  SER370  PRO371  LEU372  GLU373  SER374  ILE375  LYS376  ALA377  ASN378 
 VAL380  PHE381  ASP382  TYR383  GLN384  PHE387  GLN388  LEU397  SER407  LEU408 
 PHE409  ARG410  LEU417  MET419  LEU428  PHE429  PHE459  TRP465  TYR466  ASN468 
 MET469  GLU470  ASN472  TRP473  ALA476  ASP496  PHE497  VAL498  LEU499  MET503 
 HIS524  TRP525 

> <Gold.Protein.RotatedAtoms>
   -3.2997  -29.8023  -29.0901 H   0  0  0  0  0  0  0  0  0  0  0  0  # atno 3525 bound_to 925 
  -11.2874  -23.3903  -31.4297 H   0  0  0  0  0  0  0  0  0  0  0  0  # atno 3677 bound_to 1070
  -10.8276  -37.3677  -33.3703 H   0  0  0  0  0  0  0  0  0  0  0  0  # atno 3781 bound_to 1176
  -15.9730  -28.3715  -37.0841 H   0  0  0  0  0  0  0  0  0  0  0  0  # atno 3847 bound_to 1247
  -13.0409  -23.9602  -40.3391 H   0  0  0  0  0  0  0  0  0  0  0  0  # atno 4507 bound_to 1931
   -1.3597  -32.7034  -36.9772 H   0  0  0  0  0  0  0  0  0  0  0  0  # atno 4531 bound_to 1957
   -2.0512  -30.2634  -30.0264 LP  0  0  0  0  0  0  0  0  0  0  0  0  # atno 5201 bound_to 925 
   -3.3893  -29.6181  -30.7044 LP  0  0  0  0  0  0  0  0  0  0  0  0  # atno 5202 bound_to 925 
   -9.6928  -36.3770  -33.9857 LP  0  0  0  0  0  0  0  0  0  0  0  0  # atno 5205 bound_to 1176
   -9.5848  -36.8849  -32.4375 LP  0  0  0  0  0  0  0  0  0  0  0  0  # atno 5206 bound_to 1176
   -2.2268  -34.0729  -36.8336 LP  0  0  0  0  0  0  0  0  0  0  0  0  # atno 5213 bound_to 1957
   -2.9556  -32.6207  -36.6699 LP  0  0  0  0  0  0  0  0  0  0  0  0  # atno 5214 bound_to 1957
  -15.1389  -27.2060  -37.8547 LP  0  0  0  0  0  0  0  0  0  0  0  0  # atno 5227 bound_to 1247
  -14.4469  -28.6576  -37.5710 LP  0  0  0  0  0  0  0  0  0  0  0  0  # atno 5228 bound_to 1247
  -12.5259  -24.4461  -38.8739 LP  0  0  0  0  0  0  0  0  0  0  0  0  # atno 5245 bound_to 1931
  -13.6282  -25.3322  -39.6903 LP  0  0  0  0  0  0  0  0  0  0  0  0  # atno 5246 bound_to 1931
  -11.8070  -22.1724  -30.4836 LP  0  0  0  0  0  0  0  0  0  0  0  0  # atno 5265 bound_to 1070
  -12.7643  -23.4681  -30.7509 LP  0  0  0  0  0  0  0  0  0  0  0  0  # atno 5266 bound_to 1070

$$$$
EZ_21|Lisa_paper2_min|sdf|9|dock2
  -GOLD-  10202014353D 1   1.00000     0.00000

 45 48  0  0  0  0  0  0  0  0  1 V2000
   -5.1153  -32.2114  -35.5122 C   0  0  0  0  0  0  0  0  0  0  0  0
   -4.5321  -30.9422  -35.5007 C   0  0  0  0  0  0  0  0  0  0  0  0
   -6.4612  -32.3902  -35.1689 C   0  0  0  0  0  0  0  0  0  0  0  0
   -5.2700  -29.8077  -35.1470 C   0  0  0  0  0  0  0  0  0  0  0  0
  -11.7762  -25.6017  -36.2851 C   0  0  0  0  0  0  0  0  0  0  0  0
  -13.1975  -27.4592  -35.6796 C   0  0  0  0  0  0  0  0  0  0  0  0
  -17.9677  -23.9661  -39.1562 C   0  0  0  0  0  0  0  0  0  0  0  0
  -10.7508  -26.1307  -35.5013 C   0  0  0  0  0  0  0  0  0  0  0  0
  -12.1722  -27.9882  -34.8959 C   0  0  0  0  0  0  0  0  0  0  0  0
  -19.3230  -23.6531  -39.2588 C   0  0  0  0  0  0  0  0  0  0  0  0
  -18.3819  -25.0676  -37.0462 C   0  0  0  0  0  0  0  0  0  0  0  0
   -7.2174  -31.2613  -34.8107 C   0  0  0  0  0  0  0  0  0  0  0  0
   -6.6084  -30.0095  -34.8088 C   0  0  0  0  0  0  0  0  0  0  0  0
  -12.9996  -26.2659  -36.3742 C   0  0  0  0  0  0  0  0  0  0  0  0
  -17.4971  -24.6734  -38.0498 C   0  0  0  0  0  0  0  0  0  0  0  0
  -10.9487  -27.3240  -34.8068 C   0  0  0  0  0  0  0  0  0  0  0  0
  -20.2079  -24.0472  -38.2552 C   0  0  0  0  0  0  0  0  0  0  0  0
  -19.7374  -24.7545  -37.1488 C   0  0  0  0  0  0  0  0  0  0  0  0
   -8.7350  -29.8838  -34.2115 C   0  0  0  0  0  0  0  0  0  0  0  0
  -15.3946  -25.5627  -36.9159 C   0  0  0  0  0  0  0  0  0  0  0  0
   -9.9943  -29.2468  -33.7832 C   0  0  0  0  0  0  0  0  0  0  0  0
   -8.5382  -31.1635  -34.4373 N   0  0  0  0  0  0  0  0  0  0  0  0
   -7.6024  -29.1476  -34.4219 N   0  0  0  0  0  0  0  0  0  0  0  0
  -14.0253  -25.7367  -37.1581 N   0  0  0  0  0  0  0  0  0  0  0  0
  -16.1198  -24.9919  -37.9461 N   0  0  0  0  0  0  0  0  0  0  0  0
   -9.9434  -27.8428  -34.0383 O   0  0  0  0  0  0  0  0  0  0  0  0
  -15.9599  -25.9313  -35.3716 S   0  0  0  0  0  0  0  0  0  0  0  0
  -21.8745  -23.6266  -38.4388 Cl  0  0  0  0  0  0  0  0  0  0  0  0
  -20.7838  -25.2682  -35.8720 Cl  0  0  0  0  0  0  0  0  0  0  0  0
   -4.5159  -33.0742  -35.7922 H   0  0  0  0  0  0  0  0  0  0  0  0
   -3.4844  -30.8334  -35.7706 H   0  0  0  0  0  0  0  0  0  0  0  0
   -6.9048  -33.3806  -35.1820 H   0  0  0  0  0  0  0  0  0  0  0  0
   -4.8194  -28.8218  -35.1386 H   0  0  0  0  0  0  0  0  0  0  0  0
  -11.6109  -24.6711  -36.8222 H   0  0  0  0  0  0  0  0  0  0  0  0
  -14.1467  -27.9854  -35.7415 H   0  0  0  0  0  0  0  0  0  0  0  0
  -17.2869  -23.6556  -39.9446 H   0  0  0  0  0  0  0  0  0  0  0  0
   -9.8001  -25.6087  -35.4360 H   0  0  0  0  0  0  0  0  0  0  0  0
  -12.3323  -28.9181  -34.3570 H   0  0  0  0  0  0  0  0  0  0  0  0
  -19.6724  -23.1025  -40.1289 H   0  0  0  0  0  0  0  0  0  0  0  0
  -18.0087  -25.6180  -36.1847 H   0  0  0  0  0  0  0  0  0  0  0  0
  -10.8714  -29.6566  -34.3154 H   0  0  0  0  0  0  0  0  0  0  0  0
  -10.1846  -29.3911  -32.7047 H   0  0  0  0  0  0  0  0  0  0  0  0
   -7.5110  -28.1461  -34.3131 H   0  0  0  0  0  0  0  0  0  0  0  0
  -13.7385  -25.3757  -38.0760 H   0  0  0  0  0  0  0  0  0  0  0  0
  -15.5599  -24.6560  -38.7259 H   0  0  0  0  0  0  0  0  0  0  0  0
  1  2  2  0  0  0  0
  1  3  1  0  0  0  0
  2  4  1  0  0  0  0
  3 12  2  0  0  0  0
  4 13  2  0  0  0  0
  5  8  1  0  0  0  0
  5 14  2  0  0  0  0
  6  9  2  0  0  0  0
  6 14  1  0  0  0  0
  7 10  1  0  0  0  0
  7 15  2  0  0  0  0
  8 16  2  0  0  0  0
  9 16  1  0  0  0  0
 10 17  2  0  0  0  0
 11 15  1  0  0  0  0
 11 18  2  0  0  0  0
 12 13  1  0  0  0  0
 12 22  1  0  0  0  0
 13 23  1  0  0  0  0
 14 24  1  0  0  0  0
 15 25  1  0  0  0  0
 16 26  1  0  0  0  0
 17 18  1  0  0  0  0
 17 28  1  0  0  0  0
 18 29  1  0  0  0  0
 19 21  1  0  0  0  0
 19 22  2  0  0  0  0
 19 23  1  0  0  0  0
 20 24  1  0  0  0  0
 20 25  1  0  0  0  0
 20 27  2  0  0  0  0
 21 26  1  0  0  0  0
  1 30  1  0  0  0  0
  2 31  1  0  0  0  0
  3 32  1  0  0  0  0
  4 33  1  0  0  0  0
  5 34  1  0  0  0  0
  6 35  1  0  0  0  0
  7 36  1  0  0  0  0
  8 37  1  0  0  0  0
  9 38  1  0  0  0  0
 10 39  1  0  0  0  0
 11 40  1  0  0  0  0
 21 41  1  0  0  0  0
 21 42  1  0  0  0  0
 23 43  1  0  0  0  0
 24 44  1  0  0  0  0
 25 45  1  0  0  0  0
M  END
> <Name>
EZ_21

> <SourceTag>
EZ_21

> <Activity_sEH>
270.9

> <Activity_FLAP>
0.5

> <Gold.Version>
5.2

> <Gold.Id.Protein>
6HGV|6HGV_protein|mol2

> <Gold.PLP.Fitness>
82.8082

> <Gold.PLP.PLP>
-80.2542

> <Gold.PLP.part.hbond>
-5.2779

> <Gold.PLP.part.metal>
0.0000

> <Gold.PLP.part.buried>
2.9889

> <Gold.PLP.part.nonpolar>
-78.9448

> <Gold.PLP.part.repulsive>
0.0240

> <Gold.PLP.ligand.clash>
0.0000

> <Gold.PLP.ligand.torsion>
1.3313

> <Gold.PLP.Chemscore.Hbond>
0.9818

> <Gold.PLP.Chemscore.CHOScore>
0.0000

> <Gold.PLP.Chemscore.Metal>
0.0000

> <Gold.Chemscore.Hbonds>
donor molecule, donor type, donor heavy atom, donor atom, acceptor molecule, acceptor atom, score
      L1  H    24    44       P1  1931  0.97
      L1  H    25    45       P1  1931  0.01

> <Gold.PLP.Chemscore.Internal.Correction>
0.6059

> <Gold.Protein.RotatedTorsions>
[ 3525  925  924  922 ] final   66.77 input   59.99 | X-H torsion
[ 3781 1176 1175 1172 ] final  161.83 input   60.00 | X-H torsion
[ 4531 1957 1955 1953 ] final -114.40 input   60.00 | X-H torsion
[ 3847 1247 1246 1244 ] final  -55.55 input   60.00 | X-H torsion
[ 4507 1931 1930 1928 ] final  164.84 input   60.00 | X-H torsion
[ 3677 1070 1069 1066 ] final  -99.54 input   60.00 | X-H torsion

> <Gold.Protein.ActiveResidues>
 GLY266  PHE267  PRO268  GLU269  MET310  HIS334  ASP335  TRP336  GLY337  GLY338 
 MET339  LEU340  TRP342  TYR343  LEU358  ASN359  THR360  PRO361  ILE363  ALA365 
 MET369  SER370  PRO371  LEU372  GLU373  SER374  ILE375  LYS376  ALA377  ASN378 
 VAL380  PHE381  ASP382  TYR383  GLN384  PHE387  GLN388  LEU397  SER407  LEU408 
 PHE409  ARG410  LEU417  MET419  LEU428  PHE429  PHE459  TRP465  TYR466  ASN468 
 MET469  GLU470  ASN472  TRP473  ALA476  ASP496  PHE497  VAL498  LEU499  MET503 
 HIS524  TRP525 

> <Gold.Protein.RotatedAtoms>
   -2.7055  -29.9003  -30.8509 H   0  0  0  0  0  0  0  0  0  0  0  0  # atno 3525 bound_to 925 
  -11.7417  -23.7569  -31.4151 H   0  0  0  0  0  0  0  0  0  0  0  0  # atno 3677 bound_to 1070
   -9.3768  -36.6763  -32.6321 H   0  0  0  0  0  0  0  0  0  0  0  0  # atno 3781 bound_to 1176
  -16.0672  -27.9370  -37.2134 H   0  0  0  0  0  0  0  0  0  0  0  0  # atno 3847 bound_to 1247
  -12.7199  -23.7872  -39.9995 H   0  0  0  0  0  0  0  0  0  0  0  0  # atno 4507 bound_to 1931
   -1.3329  -32.7617  -36.9833 H   0  0  0  0  0  0  0  0  0  0  0  0  # atno 4531 bound_to 1957
   -3.7461  -29.5593  -29.6472 LP  0  0  0  0  0  0  0  0  0  0  0  0  # atno 5201 bound_to 925 
   -2.2929  -30.2236  -29.3104 LP  0  0  0  0  0  0  0  0  0  0  0  0  # atno 5202 bound_to 925 
  -10.7552  -37.4427  -33.0331 LP  0  0  0  0  0  0  0  0  0  0  0  0  # atno 5205 bound_to 1176
   -9.9833  -36.5155  -34.1336 LP  0  0  0  0  0  0  0  0  0  0  0  0  # atno 5206 bound_to 1176
   -2.2904  -34.0675  -36.8214 LP  0  0  0  0  0  0  0  0  0  0  0  0  # atno 5213 bound_to 1957
   -2.9191  -32.5674  -36.6760 LP  0  0  0  0  0  0  0  0  0  0  0  0  # atno 5214 bound_to 1957
  -14.7214  -27.3915  -37.9476 LP  0  0  0  0  0  0  0  0  0  0  0  0  # atno 5227 bound_to 1247
  -14.7696  -28.9096  -37.3479 LP  0  0  0  0  0  0  0  0  0  0  0  0  # atno 5228 bound_to 1247
  -12.7758  -24.8728  -38.7885 LP  0  0  0  0  0  0  0  0  0  0  0  0  # atno 5245 bound_to 1931
  -13.7015  -25.0797  -40.1177 LP  0  0  0  0  0  0  0  0  0  0  0  0  # atno 5246 bound_to 1931
  -11.3285  -22.3094  -30.7969 LP  0  0  0  0  0  0  0  0  0  0  0  0  # atno 5265 bound_to 1070
  -12.7853  -22.9619  -30.4523 LP  0  0  0  0  0  0  0  0  0  0  0  0  # atno 5266 bound_to 1070

$$$$
EZ_21|Lisa_paper2_min|sdf|9|dock4
  -GOLD-  10202014353D 1   1.00000     0.00000

 45 48  0  0  0  0  0  0  0  0  1 V2000
   -3.7329  -32.5527  -31.8694 C   0  0  0  0  0  0  0  0  0  0  0  0
   -3.2985  -33.0335  -33.1068 C   0  0  0  0  0  0  0  0  0  0  0  0
   -4.7794  -31.6259  -31.7825 C   0  0  0  0  0  0  0  0  0  0  0  0
   -3.8918  -32.6077  -34.2999 C   0  0  0  0  0  0  0  0  0  0  0  0
  -11.0006  -27.4217  -36.4058 C   0  0  0  0  0  0  0  0  0  0  0  0
  -10.4540  -25.6648  -34.8399 C   0  0  0  0  0  0  0  0  0  0  0  0
  -16.6388  -25.2667  -37.1358 C   0  0  0  0  0  0  0  0  0  0  0  0
   -9.9836  -28.2135  -35.8725 C   0  0  0  0  0  0  0  0  0  0  0  0
   -9.4370  -26.4566  -34.3066 C   0  0  0  0  0  0  0  0  0  0  0  0
  -17.9542  -25.1993  -37.5946 C   0  0  0  0  0  0  0  0  0  0  0  0
  -15.9597  -23.7098  -38.8539 C   0  0  0  0  0  0  0  0  0  0  0  0
   -5.3868  -31.1870  -32.9713 C   0  0  0  0  0  0  0  0  0  0  0  0
   -4.9319  -31.6844  -34.1893 C   0  0  0  0  0  0  0  0  0  0  0  0
  -11.2358  -26.1473  -35.8895 C   0  0  0  0  0  0  0  0  0  0  0  0
  -15.6415  -24.5219  -37.7654 C   0  0  0  0  0  0  0  0  0  0  0  0
   -9.2018  -27.7310  -34.8229 C   0  0  0  0  0  0  0  0  0  0  0  0
  -18.2726  -24.3871  -38.6830 C   0  0  0  0  0  0  0  0  0  0  0  0
  -17.2753  -23.6423  -39.3127 C   0  0  0  0  0  0  0  0  0  0  0  0
   -6.5917  -30.2474  -34.4627 C   0  0  0  0  0  0  0  0  0  0  0  0
  -13.5711  -25.6495  -36.7964 C   0  0  0  0  0  0  0  0  0  0  0  0
   -7.5840  -29.4348  -35.1908 C   0  0  0  0  0  0  0  0  0  0  0  0
   -6.4180  -30.2960  -33.1609 N   0  0  0  0  0  0  0  0  0  0  0  0
   -5.7206  -31.0664  -35.1256 N   0  0  0  0  0  0  0  0  0  0  0  0
  -12.2529  -25.3552  -36.4229 N   0  0  0  0  0  0  0  0  0  0  0  0
  -14.3049  -24.5902  -37.2985 N   0  0  0  0  0  0  0  0  0  0  0  0
   -8.2047  -28.5073  -34.3000 O   0  0  0  0  0  0  0  0  0  0  0  0
  -14.1418  -27.1997  -36.4622 S   0  0  0  0  0  0  0  0  0  0  0  0
  -19.9197  -24.3488  -39.2060 Cl  0  0  0  0  0  0  0  0  0  0  0  0
  -17.6068  -22.6199  -40.6669 Cl  0  0  0  0  0  0  0  0  0  0  0  0
   -3.2522  -32.9030  -30.9594 H   0  0  0  0  0  0  0  0  0  0  0  0
   -2.4828  -33.7516  -33.1442 H   0  0  0  0  0  0  0  0  0  0  0  0
   -5.1098  -31.2593  -30.8160 H   0  0  0  0  0  0  0  0  0  0  0  0
   -3.5566  -32.9806  -35.2610 H   0  0  0  0  0  0  0  0  0  0  0  0
  -11.6038  -27.8078  -37.2235 H   0  0  0  0  0  0  0  0  0  0  0  0
  -10.6281  -24.6733  -34.4297 H   0  0  0  0  0  0  0  0  0  0  0  0
  -16.4018  -25.9015  -36.2858 H   0  0  0  0  0  0  0  0  0  0  0  0
   -9.8054  -29.2053  -36.2789 H   0  0  0  0  0  0  0  0  0  0  0  0
   -8.8313  -26.0753  -33.4891 H   0  0  0  0  0  0  0  0  0  0  0  0
  -18.7189  -25.7855  -37.0908 H   0  0  0  0  0  0  0  0  0  0  0  0
  -15.1772  -23.1321  -39.3419 H   0  0  0  0  0  0  0  0  0  0  0  0
   -7.1275  -28.8591  -36.0159 H   0  0  0  0  0  0  0  0  0  0  0  0
   -8.3771  -30.0574  -35.6423 H   0  0  0  0  0  0  0  0  0  0  0  0
   -5.6656  -31.1961  -36.1272 H   0  0  0  0  0  0  0  0  0  0  0  0
  -12.0212  -24.3619  -36.5451 H   0  0  0  0  0  0  0  0  0  0  0  0
  -13.8439  -23.6856  -37.2369 H   0  0  0  0  0  0  0  0  0  0  0  0
  1  2  2  0  0  0  0
  1  3  1  0  0  0  0
  2  4  1  0  0  0  0
  3 12  2  0  0  0  0
  4 13  2  0  0  0  0
  5  8  1  0  0  0  0
  5 14  2  0  0  0  0
  6  9  2  0  0  0  0
  6 14  1  0  0  0  0
  7 10  1  0  0  0  0
  7 15  2  0  0  0  0
  8 16  2  0  0  0  0
  9 16  1  0  0  0  0
 10 17  2  0  0  0  0
 11 15  1  0  0  0  0
 11 18  2  0  0  0  0
 12 13  1  0  0  0  0
 12 22  1  0  0  0  0
 13 23  1  0  0  0  0
 14 24  1  0  0  0  0
 15 25  1  0  0  0  0
 16 26  1  0  0  0  0
 17 18  1  0  0  0  0
 17 28  1  0  0  0  0
 18 29  1  0  0  0  0
 19 21  1  0  0  0  0
 19 22  2  0  0  0  0
 19 23  1  0  0  0  0
 20 24  1  0  0  0  0
 20 25  1  0  0  0  0
 20 27  2  0  0  0  0
 21 26  1  0  0  0  0
  1 30  1  0  0  0  0
  2 31  1  0  0  0  0
  3 32  1  0  0  0  0
  4 33  1  0  0  0  0
  5 34  1  0  0  0  0
  6 35  1  0  0  0  0
  7 36  1  0  0  0  0
  8 37  1  0  0  0  0
  9 38  1  0  0  0  0
 10 39  1  0  0  0  0
 11 40  1  0  0  0  0
 21 41  1  0  0  0  0
 21 42  1  0  0  0  0
 23 43  1  0  0  0  0
 24 44  1  0  0  0  0
 25 45  1  0  0  0  0
M  END
> <Name>
EZ_21

> <SourceTag>
EZ_21

> <Activity_sEH>
270.9

> <Activity_FLAP>
0.5

> <Gold.Version>
5.2

> <Gold.Id.Protein>
6HGV|6HGV_protein|mol2

> <Gold.PLP.Fitness>
79.9131

> <Gold.PLP.PLP>
-78.4007

> <Gold.PLP.part.hbond>
-6.0608

> <Gold.PLP.part.metal>
0.0000

> <Gold.PLP.part.buried>
11.7993

> <Gold.PLP.part.nonpolar>
-84.5591

> <Gold.PLP.part.repulsive>
0.0678

> <Gold.PLP.ligand.clash>
0.0000

> <Gold.PLP.ligand.torsion>
1.1013

> <Gold.PLP.Chemscore.Hbond>
0.6082

> <Gold.PLP.Chemscore.CHOScore>
0.0000

> <Gold.PLP.Chemscore.Metal>
0.0000

> <Gold.Chemscore.Hbonds>
donor molecule, donor type, donor heavy atom, donor atom, acceptor molecule, acceptor atom, score
      L1  H    25    45       P1   853  0.04
      P1  H  1256  3855       L1    27  0.28
      P1  H  1247  3847       L1    27  0.28

> <Gold.PLP.Chemscore.Internal.Correction>
0.5821

> <Gold.Protein.RotatedTorsions>
[ 3525  925  924  922 ] final  -52.93 input   59.99 | X-H torsion
[ 3781 1176 1175 1172 ] final -113.87 input   60.00 | X-H torsion
[ 4531 1957 1955 1953 ] final -126.43 input   60.00 | X-H torsion
[ 3847 1247 1246 1244 ] final  128.10 input   60.00 | X-H torsion
[ 4507 1931 1930 1928 ] final  147.81 input   60.00 | X-H torsion
[ 3677 1070 1069 1066 ] final  138.69 input   60.00 | X-H torsion

> <Gold.Protein.ActiveResidues>
 GLY266  PHE267  PRO268  GLU269  MET310  HIS334  ASP335  TRP336  GLY337  GLY338 
 MET339  LEU340  TRP342  TYR343  LEU358  ASN359  THR360  PRO361  ILE363  ALA365 
 MET369  SER370  PRO371  LEU372  GLU373  SER374  ILE375  LYS376  ALA377  ASN378 
 VAL380  PHE381  ASP382  TYR383  GLN384  PHE387  GLN388  LEU397  SER407  LEU408 
 PHE409  ARG410  LEU417  MET419  LEU428  PHE429  PHE459  TRP465  TYR466  ASN468 
 MET469  GLU470  ASN472  TRP473  ALA476  ASP496  PHE497  VAL498  LEU499  MET503 
 HIS524  TRP525 

> <Gold.Protein.RotatedAtoms>
   -3.7406  -29.5585  -29.6538 H   0  0  0  0  0  0  0  0  0  0  0  0  # atno 3525 bound_to 925 
  -11.3507  -22.3016  -30.7786 H   0  0  0  0  0  0  0  0  0  0  0  0  # atno 3677 bound_to 1070
   -9.5302  -36.3299  -33.8301 H   0  0  0  0  0  0  0  0  0  0  0  0  # atno 3781 bound_to 1176
  -14.3101  -28.1664  -37.8153 H   0  0  0  0  0  0  0  0  0  0  0  0  # atno 3847 bound_to 1247
  -12.5796  -23.7872  -39.7604 H   0  0  0  0  0  0  0  0  0  0  0  0  # atno 4507 bound_to 1931
   -1.2763  -32.9491  -36.9973 H   0  0  0  0  0  0  0  0  0  0  0  0  # atno 4531 bound_to 1957
   -2.2961  -30.2225  -29.3066 LP  0  0  0  0  0  0  0  0  0  0  0  0  # atno 5201 bound_to 925 
   -2.7005  -29.9045  -30.8565 LP  0  0  0  0  0  0  0  0  0  0  0  0  # atno 5202 bound_to 925 
   -9.7584  -37.0238  -32.3760 LP  0  0  0  0  0  0  0  0  0  0  0  0  # atno 5205 bound_to 1176
  -10.8258  -37.2833  -33.5843 LP  0  0  0  0  0  0  0  0  0  0  0  0  # atno 5206 bound_to 1176
   -2.4796  -34.0239  -36.7847 LP  0  0  0  0  0  0  0  0  0  0  0  0  # atno 5213 bound_to 1957
   -2.7868  -32.4223  -36.6986 LP  0  0  0  0  0  0  0  0  0  0  0  0  # atno 5214 bound_to 1957
  -15.6055  -28.8005  -37.0616 LP  0  0  0  0  0  0  0  0  0  0  0  0  # atno 5227 bound_to 1247
  -15.6550  -27.2696  -37.6278 LP  0  0  0  0  0  0  0  0  0  0  0  0  # atno 5228 bound_to 1247
  -12.9546  -25.0795  -38.8454 LP  0  0  0  0  0  0  0  0  0  0  0  0  # atno 5245 bound_to 1931
  -13.6640  -24.8730  -40.3016 LP  0  0  0  0  0  0  0  0  0  0  0  0  # atno 5246 bound_to 1931
  -12.7922  -22.9878  -30.4636 LP  0  0  0  0  0  0  0  0  0  0  0  0  # atno 5265 bound_to 1070
  -11.7153  -23.7491  -31.4266 LP  0  0  0  0  0  0  0  0  0  0  0  0  # atno 5266 bound_to 1070

$$$$
EZ_21|Lisa_paper2_min|sdf|9|dock7
  -GOLD-  10202014363D 1   1.00000     0.00000

 45 48  0  0  0  0  0  0  0  0  1 V2000
  -18.8330  -24.1097  -39.7095 C   0  0  0  0  0  0  0  0  0  0  0  0
  -17.8406  -23.1406  -39.8744 C   0  0  0  0  0  0  0  0  0  0  0  0
  -18.6961  -25.1279  -38.7577 C   0  0  0  0  0  0  0  0  0  0  0  0
  -16.6781  -23.1526  -39.0964 C   0  0  0  0  0  0  0  0  0  0  0  0
  -10.6204  -25.8589  -34.1048 C   0  0  0  0  0  0  0  0  0  0  0  0
  -11.2411  -27.5623  -35.7019 C   0  0  0  0  0  0  0  0  0  0  0  0
   -5.1410  -30.2108  -34.0470 C   0  0  0  0  0  0  0  0  0  0  0  0
  -11.8915  -25.2947  -34.2124 C   0  0  0  0  0  0  0  0  0  0  0  0
  -12.5122  -26.9982  -35.8094 C   0  0  0  0  0  0  0  0  0  0  0  0
   -4.3763  -31.3758  -33.9874 C   0  0  0  0  0  0  0  0  0  0  0  0
   -6.9879  -31.4702  -34.9634 C   0  0  0  0  0  0  0  0  0  0  0  0
  -17.5344  -25.1553  -37.9676 C   0  0  0  0  0  0  0  0  0  0  0  0
  -16.5632  -24.1758  -38.1550 C   0  0  0  0  0  0  0  0  0  0  0  0
  -10.2952  -26.9927  -34.8495 C   0  0  0  0  0  0  0  0  0  0  0  0
   -6.4469  -30.2581  -34.5351 C   0  0  0  0  0  0  0  0  0  0  0  0
  -12.8375  -25.8644  -35.0647 C   0  0  0  0  0  0  0  0  0  0  0  0
   -4.9172  -32.5880  -34.4157 C   0  0  0  0  0  0  0  0  0  0  0  0
   -6.2231  -32.6353  -34.9038 C   0  0  0  0  0  0  0  0  0  0  0  0
  -15.9869  -25.6036  -36.5662 C   0  0  0  0  0  0  0  0  0  0  0  0
   -8.5895  -28.8890  -34.7133 C   0  0  0  0  0  0  0  0  0  0  0  0
  -15.1498  -26.1992  -35.5081 C   0  0  0  0  0  0  0  0  0  0  0  0
  -17.1592  -26.0332  -36.9767 N   0  0  0  0  0  0  0  0  0  0  0  0
  -15.5853  -24.4872  -37.2454 N   0  0  0  0  0  0  0  0  0  0  0  0
   -9.0237  -27.5570  -34.7421 N   0  0  0  0  0  0  0  0  0  0  0  0
   -7.2240  -29.0742  -34.5949 N   0  0  0  0  0  0  0  0  0  0  0  0
  -14.0838  -25.3113  -35.1702 O   0  0  0  0  0  0  0  0  0  0  0  0
   -9.7488  -30.0860  -34.9657 S   0  0  0  0  0  0  0  0  0  0  0  0
   -3.9183  -33.9955  -34.3196 Cl  0  0  0  0  0  0  0  0  0  0  0  0
   -6.9481  -34.1062  -35.4513 Cl  0  0  0  0  0  0  0  0  0  0  0  0
  -19.7257  -24.0735  -40.3289 H   0  0  0  0  0  0  0  0  0  0  0  0
  -17.9731  -22.3624  -40.6222 H   0  0  0  0  0  0  0  0  0  0  0  0
  -19.4736  -25.8754  -38.6371 H   0  0  0  0  0  0  0  0  0  0  0  0
  -15.9075  -22.4007  -39.2223 H   0  0  0  0  0  0  0  0  0  0  0  0
   -9.8911  -25.4068  -33.4374 H   0  0  0  0  0  0  0  0  0  0  0  0
  -10.9988  -28.4457  -36.2871 H   0  0  0  0  0  0  0  0  0  0  0  0
   -4.7103  -29.2717  -33.7092 H   0  0  0  0  0  0  0  0  0  0  0  0
  -12.1389  -24.4117  -33.6297 H   0  0  0  0  0  0  0  0  0  0  0  0
  -13.2448  -27.4463  -36.4751 H   0  0  0  0  0  0  0  0  0  0  0  0
   -3.3608  -31.3205  -33.6027 H   0  0  0  0  0  0  0  0  0  0  0  0
   -8.0068  -31.5007  -35.3445 H   0  0  0  0  0  0  0  0  0  0  0  0
  -15.7246  -26.4050  -34.5874 H   0  0  0  0  0  0  0  0  0  0  0  0
  -14.7063  -27.1604  -35.8239 H   0  0  0  0  0  0  0  0  0  0  0  0
  -14.7221  -23.9791  -37.1042 H   0  0  0  0  0  0  0  0  0  0  0  0
   -8.2452  -26.8878  -34.7050 H   0  0  0  0  0  0  0  0  0  0  0  0
   -6.6719  -28.2222  -34.6555 H   0  0  0  0  0  0  0  0  0  0  0  0
  1  2  2  0  0  0  0
  1  3  1  0  0  0  0
  2  4  1  0  0  0  0
  3 12  2  0  0  0  0
  4 13  2  0  0  0  0
  5  8  1  0  0  0  0
  5 14  2  0  0  0  0
  6  9  2  0  0  0  0
  6 14  1  0  0  0  0
  7 10  1  0  0  0  0
  7 15  2  0  0  0  0
  8 16  2  0  0  0  0
  9 16  1  0  0  0  0
 10 17  2  0  0  0  0
 11 15  1  0  0  0  0
 11 18  2  0  0  0  0
 12 13  1  0  0  0  0
 12 22  1  0  0  0  0
 13 23  1  0  0  0  0
 14 24  1  0  0  0  0
 15 25  1  0  0  0  0
 16 26  1  0  0  0  0
 17 18  1  0  0  0  0
 17 28  1  0  0  0  0
 18 29  1  0  0  0  0
 19 21  1  0  0  0  0
 19 22  2  0  0  0  0
 19 23  1  0  0  0  0
 20 24  1  0  0  0  0
 20 25  1  0  0  0  0
 20 27  2  0  0  0  0
 21 26  1  0  0  0  0
  1 30  1  0  0  0  0
  2 31  1  0  0  0  0
  3 32  1  0  0  0  0
  4 33  1  0  0  0  0
  5 34  1  0  0  0  0
  6 35  1  0  0  0  0
  7 36  1  0  0  0  0
  8 37  1  0  0  0  0
  9 38  1  0  0  0  0
 10 39  1  0  0  0  0
 11 40  1  0  0  0  0
 21 41  1  0  0  0  0
 21 42  1  0  0  0  0
 23 43  1  0  0  0  0
 24 44  1  0  0  0  0
 25 45  1  0  0  0  0
M  END
> <Name>
EZ_21

> <SourceTag>
EZ_21

> <Activity_sEH>
270.9

> <Activity_FLAP>
0.5

> <Gold.Version>
5.2

> <Gold.Id.Protein>
6HGV|6HGV_protein|mol2

> <Gold.PLP.Fitness>
78.3305

> <Gold.PLP.PLP>
-76.0996

> <Gold.PLP.part.hbond>
-4.0000

> <Gold.PLP.part.metal>
0.0000

> <Gold.PLP.part.buried>
3.2526

> <Gold.PLP.part.nonpolar>
-79.0603

> <Gold.PLP.part.repulsive>
2.9007

> <Gold.PLP.ligand.clash>
0.0000

> <Gold.PLP.ligand.torsion>
1.1882

> <Gold.PLP.Chemscore.Hbond>
0.8538

> <Gold.PLP.Chemscore.CHOScore>
0.0000

> <Gold.PLP.Chemscore.Metal>
0.0000

> <Gold.Chemscore.Hbonds>
donor molecule, donor type, donor heavy atom, donor atom, acceptor molecule, acceptor atom, score
      L1  H    23    43       P1   853  0.63
      P1  H  1256  3854       L1    27  0.23

> <Gold.PLP.Chemscore.Internal.Correction>
0.5672

> <Gold.Protein.RotatedTorsions>
[ 3525  925  924  922 ] final  163.59 input   59.99 | X-H torsion
[ 3781 1176 1175 1172 ] final  141.83 input   60.00 | X-H torsion
[ 4531 1957 1955 1953 ] final -110.15 input   60.00 | X-H torsion
[ 3847 1247 1246 1244 ] final  -43.66 input   60.00 | X-H torsion
[ 4507 1931 1930 1928 ] final -106.35 input   60.00 | X-H torsion
[ 3677 1070 1069 1066 ] final   38.28 input   60.00 | X-H torsion

> <Gold.Protein.ActiveResidues>
 GLY266  PHE267  PRO268  GLU269  MET310  HIS334  ASP335  TRP336  GLY337  GLY338 
 MET339  LEU340  TRP342  TYR343  LEU358  ASN359  THR360  PRO361  ILE363  ALA365 
 MET369  SER370  PRO371  LEU372  GLU373  SER374  ILE375  LYS376  ALA377  ASN378 
 VAL380  PHE381  ASP382  TYR383  GLN384  PHE387  GLN388  LEU397  SER407  LEU408 
 PHE409  ARG410  LEU417  MET419  LEU428  PHE429  PHE459  TRP465  TYR466  ASN468 
 MET469  GLU470  ASN472  TRP473  ALA476  ASP496  PHE497  VAL498  LEU499  MET503 
 HIS524  TRP525 

> <Gold.Protein.RotatedAtoms>
   -2.1113  -30.2703  -29.6379 H   0  0  0  0  0  0  0  0  0  0  0  0  # atno 3525 bound_to 925 
  -12.6664  -22.7110  -30.3648 H   0  0  0  0  0  0  0  0  0  0  0  0  # atno 3677 bound_to 1070
   -9.5681  -36.8704  -32.4545 H   0  0  0  0  0  0  0  0  0  0  0  0  # atno 3781 bound_to 1176
  -16.0541  -28.1194  -37.1488 H   0  0  0  0  0  0  0  0  0  0  0  0  # atno 3847 bound_to 1247
  -13.5872  -24.6810  -40.4062 H   0  0  0  0  0  0  0  0  0  0  0  0  # atno 4507 bound_to 1931
   -1.3618  -32.6991  -36.9767 H   0  0  0  0  0  0  0  0  0  0  0  0  # atno 4531 bound_to 1957
   -3.0520  -29.7509  -30.8599 LP  0  0  0  0  0  0  0  0  0  0  0  0  # atno 5201 bound_to 925 
   -3.5854  -29.6593  -29.3192 LP  0  0  0  0  0  0  0  0  0  0  0  0  # atno 5202 bound_to 925 
  -10.8324  -37.3774  -33.3447 LP  0  0  0  0  0  0  0  0  0  0  0  0  # atno 5205 bound_to 1176
   -9.7136  -36.3853  -34.0009 LP  0  0  0  0  0  0  0  0  0  0  0  0  # atno 5206 bound_to 1176
   -2.2221  -34.0731  -36.8345 LP  0  0  0  0  0  0  0  0  0  0  0  0  # atno 5213 bound_to 1957
   -2.9582  -32.6248  -36.6695 LP  0  0  0  0  0  0  0  0  0  0  0  0  # atno 5214 bound_to 1957
  -14.8864  -27.2903  -37.9215 LP  0  0  0  0  0  0  0  0  0  0  0  0  # atno 5227 bound_to 1247
  -14.6178  -28.8271  -37.4391 LP  0  0  0  0  0  0  0  0  0  0  0  0  # atno 5228 bound_to 1247
  -12.4925  -23.8338  -39.5507 LP  0  0  0  0  0  0  0  0  0  0  0  0  # atno 5245 bound_to 1931
  -13.1114  -25.2186  -38.9459 LP  0  0  0  0  0  0  0  0  0  0  0  0  # atno 5246 bound_to 1931
  -12.0087  -23.8403  -31.3344 LP  0  0  0  0  0  0  0  0  0  0  0  0  # atno 5265 bound_to 1070
  -11.1739  -22.4843  -30.9725 LP  0  0  0  0  0  0  0  0  0  0  0  0  # atno 5266 bound_to 1070

$$$$
EZ_21|Lisa_paper2_min|sdf|9|dock10
  -GOLD-  10202014373D 1   1.00000     0.00000

 45 48  0  0  0  0  0  0  0  0  1 V2000
  -18.4849  -23.3057  -40.0557 C   0  0  0  0  0  0  0  0  0  0  0  0
  -17.3419  -23.4428  -40.8469 C   0  0  0  0  0  0  0  0  0  0  0  0
  -18.5181  -23.7971  -38.7447 C   0  0  0  0  0  0  0  0  0  0  0  0
  -16.1930  -24.0740  -40.3589 C   0  0  0  0  0  0  0  0  0  0  0  0
  -11.2549  -27.4750  -35.9749 C   0  0  0  0  0  0  0  0  0  0  0  0
  -10.8099  -25.9758  -34.1333 C   0  0  0  0  0  0  0  0  0  0  0  0
   -5.2627  -30.2826  -35.0992 C   0  0  0  0  0  0  0  0  0  0  0  0
  -12.5154  -26.9006  -36.1380 C   0  0  0  0  0  0  0  0  0  0  0  0
  -12.0704  -25.4013  -34.2964 C   0  0  0  0  0  0  0  0  0  0  0  0
   -4.4989  -31.4495  -35.0814 C   0  0  0  0  0  0  0  0  0  0  0  0
   -7.1261  -31.4878  -34.1441 C   0  0  0  0  0  0  0  0  0  0  0  0
  -17.3726  -24.4344  -38.2384 C   0  0  0  0  0  0  0  0  0  0  0  0
  -16.2488  -24.5558  -39.0508 C   0  0  0  0  0  0  0  0  0  0  0  0
  -10.4021  -27.0127  -34.9725 C   0  0  0  0  0  0  0  0  0  0  0  0
   -6.5764  -30.3018  -34.6306 C   0  0  0  0  0  0  0  0  0  0  0  0
  -12.9232  -25.8637  -35.2989 C   0  0  0  0  0  0  0  0  0  0  0  0
   -5.0485  -32.6357  -34.5949 C   0  0  0  0  0  0  0  0  0  0  0  0
   -6.3622  -32.6548  -34.1262 C   0  0  0  0  0  0  0  0  0  0  0  0
  -15.9148  -25.4521  -37.0558 C   0  0  0  0  0  0  0  0  0  0  0  0
   -8.7037  -28.9173  -34.8649 C   0  0  0  0  0  0  0  0  0  0  0  0
  -15.1841  -26.1472  -35.9797 C   0  0  0  0  0  0  0  0  0  0  0  0
  -17.1465  -24.9967  -37.0031 N   0  0  0  0  0  0  0  0  0  0  0  0
  -15.3321  -25.2104  -38.2687 N   0  0  0  0  0  0  0  0  0  0  0  0
   -9.1413  -27.5872  -34.8091 N   0  0  0  0  0  0  0  0  0  0  0  0
   -7.3522  -29.1156  -34.6483 N   0  0  0  0  0  0  0  0  0  0  0  0
  -14.1591  -25.3004  -35.4587 O   0  0  0  0  0  0  0  0  0  0  0  0
   -9.8308  -30.0837  -35.3229 S   0  0  0  0  0  0  0  0  0  0  0  0
   -4.0523  -34.0484  -34.6019 Cl  0  0  0  0  0  0  0  0  0  0  0  0
   -7.0997  -34.0935  -33.5137 Cl  0  0  0  0  0  0  0  0  0  0  0  0
  -19.3624  -22.8096  -40.4630 H   0  0  0  0  0  0  0  0  0  0  0  0
  -17.3451  -23.0527  -41.8619 H   0  0  0  0  0  0  0  0  0  0  0  0
  -19.4110  -23.6846  -38.1382 H   0  0  0  0  0  0  0  0  0  0  0  0
  -15.3047  -24.1804  -40.9712 H   0  0  0  0  0  0  0  0  0  0  0  0
  -10.9474  -28.2824  -36.6346 H   0  0  0  0  0  0  0  0  0  0  0  0
  -10.1539  -25.6075  -33.3487 H   0  0  0  0  0  0  0  0  0  0  0  0
   -4.8242  -29.3634  -35.4790 H   0  0  0  0  0  0  0  0  0  0  0  0
  -13.1751  -27.2650  -36.9207 H   0  0  0  0  0  0  0  0  0  0  0  0
  -12.3825  -24.5940  -33.6396 H   0  0  0  0  0  0  0  0  0  0  0  0
   -3.4763  -31.4158  -35.4492 H   0  0  0  0  0  0  0  0  0  0  0  0
   -8.1520  -31.4969  -33.7811 H   0  0  0  0  0  0  0  0  0  0  0  0
  -15.8461  -26.4328  -35.1427 H   0  0  0  0  0  0  0  0  0  0  0  0
  -14.7088  -27.0782  -36.3372 H   0  0  0  0  0  0  0  0  0  0  0  0
  -14.3928  -25.4667  -38.5429 H   0  0  0  0  0  0  0  0  0  0  0  0
   -8.3724  -26.9260  -34.6452 H   0  0  0  0  0  0  0  0  0  0  0  0
   -6.8016  -28.2629  -34.5838 H   0  0  0  0  0  0  0  0  0  0  0  0
  1  2  2  0  0  0  0
  1  3  1  0  0  0  0
  2  4  1  0  0  0  0
  3 12  2  0  0  0  0
  4 13  2  0  0  0  0
  5  8  1  0  0  0  0
  5 14  2  0  0  0  0
  6  9  2  0  0  0  0
  6 14  1  0  0  0  0
  7 10  1  0  0  0  0
  7 15  2  0  0  0  0
  8 16  2  0  0  0  0
  9 16  1  0  0  0  0
 10 17  2  0  0  0  0
 11 15  1  0  0  0  0
 11 18  2  0  0  0  0
 12 13  1  0  0  0  0
 12 22  1  0  0  0  0
 13 23  1  0  0  0  0
 14 24  1  0  0  0  0
 15 25  1  0  0  0  0
 16 26  1  0  0  0  0
 17 18  1  0  0  0  0
 17 28  1  0  0  0  0
 18 29  1  0  0  0  0
 19 21  1  0  0  0  0
 19 22  2  0  0  0  0
 19 23  1  0  0  0  0
 20 24  1  0  0  0  0
 20 25  1  0  0  0  0
 20 27  2  0  0  0  0
 21 26  1  0  0  0  0
  1 30  1  0  0  0  0
  2 31  1  0  0  0  0
  3 32  1  0  0  0  0
  4 33  1  0  0  0  0
  5 34  1  0  0  0  0
  6 35  1  0  0  0  0
  7 36  1  0  0  0  0
  8 37  1  0  0  0  0
  9 38  1  0  0  0  0
 10 39  1  0  0  0  0
 11 40  1  0  0  0  0
 21 41  1  0  0  0  0
 21 42  1  0  0  0  0
 23 43  1  0  0  0  0
 24 44  1  0  0  0  0
 25 45  1  0  0  0  0
M  END
> <Name>
EZ_21

> <SourceTag>
EZ_21

> <Activity_sEH>
270.9

> <Activity_FLAP>
0.5

> <Gold.Version>
5.2

> <Gold.Id.Protein>
6HGV|6HGV_protein|mol2

> <Gold.PLP.Fitness>
76.5097

> <Gold.PLP.PLP>
-72.8479

> <Gold.PLP.part.hbond>
-4.0000

> <Gold.PLP.part.metal>
0.0000

> <Gold.PLP.part.buried>
7.2803

> <Gold.PLP.part.nonpolar>
-80.4431

> <Gold.PLP.part.repulsive>
2.9482

> <Gold.PLP.ligand.clash>
0.0000

> <Gold.PLP.ligand.torsion>
1.3791

> <Gold.PLP.Chemscore.Hbond>
1.3394

> <Gold.PLP.Chemscore.CHOScore>
0.0000

> <Gold.PLP.Chemscore.Metal>
0.0000

> <Gold.Chemscore.Hbonds>
donor molecule, donor type, donor heavy atom, donor atom, acceptor molecule, acceptor atom, score
      L1  H    23    43       P1  1931  0.80
      P1  H  1256  3854       L1    27  0.53

> <Gold.PLP.Chemscore.Internal.Correction>
0.5672

> <Gold.Protein.RotatedTorsions>
[ 3525  925  924  922 ] final  -79.32 input   59.99 | X-H torsion
[ 3781 1176 1175 1172 ] final   -2.73 input   60.00 | X-H torsion
[ 4531 1957 1955 1953 ] final   29.09 input   60.00 | X-H torsion
[ 3847 1247 1246 1244 ] final  -86.03 input   60.00 | X-H torsion
[ 4507 1931 1930 1928 ] final  145.94 input   60.00 | X-H torsion
[ 3677 1070 1069 1066 ] final   84.72 input   60.00 | X-H torsion

> <Gold.Protein.ActiveResidues>
 GLY266  PHE267  PRO268  GLU269  MET310  HIS334  ASP335  TRP336  GLY337  GLY338 
 MET339  LEU340  TRP342  TYR343  LEU358  ASN359  THR360  PRO361  ILE363  ALA365 
 MET369  SER370  PRO371  LEU372  GLU373  SER374  ILE375  LYS376  ALA377  ASN378 
 VAL380  PHE381  ASP382  TYR383  GLN384  PHE387  GLN388  LEU397  SER407  LEU408 
 PHE409  ARG410  LEU417  MET419  LEU428  PHE429  PHE459  TRP465  TYR466  ASN468 
 MET469  GLU470  ASN472  TRP473  ALA476  ASP496  PHE497  VAL498  LEU499  MET503 
 HIS524  TRP525 

> <Gold.Protein.RotatedAtoms>
   -3.5513  -29.6745  -29.2884 H   0  0  0  0  0  0  0  0  0  0  0  0  # atno 3525 bound_to 925 
  -12.0971  -22.2411  -30.3772 H   0  0  0  0  0  0  0  0  0  0  0  0  # atno 3677 bound_to 1070
  -10.7893  -37.2158  -33.7076 H   0  0  0  0  0  0  0  0  0  0  0  0  # atno 3781 bound_to 1176
  -15.9318  -27.5152  -37.4279 H   0  0  0  0  0  0  0  0  0  0  0  0  # atno 3847 bound_to 1247
  -12.5666  -23.7915  -39.7331 H   0  0  0  0  0  0  0  0  0  0  0  0  # atno 4507 bound_to 1931
   -3.0737  -32.9166  -36.6550 H   0  0  0  0  0  0  0  0  0  0  0  0  # atno 4531 bound_to 1957
   -2.0919  -30.2773  -29.6817 LP  0  0  0  0  0  0  0  0  0  0  0  0  # atno 5201 bound_to 925 
   -3.0953  -29.7330  -30.8494 LP  0  0  0  0  0  0  0  0  0  0  0  0  # atno 5202 bound_to 925 
   -9.4391  -36.3076  -33.7192 LP  0  0  0  0  0  0  0  0  0  0  0  0  # atno 5205 bound_to 1176
   -9.8771  -37.1073  -32.3644 LP  0  0  0  0  0  0  0  0  0  0  0  0  # atno 5206 bound_to 1176
   -1.5417  -32.4449  -36.9357 LP  0  0  0  0  0  0  0  0  0  0  0  0  # atno 5213 bound_to 1957
   -1.9147  -34.0341  -36.8922 LP  0  0  0  0  0  0  0  0  0  0  0  0  # atno 5214 bound_to 1957
  -14.4042  -27.7719  -37.9266 LP  0  0  0  0  0  0  0  0  0  0  0  0  # atno 5227 bound_to 1247
  -15.2232  -28.9540  -37.1529 LP  0  0  0  0  0  0  0  0  0  0  0  0  # atno 5228 bound_to 1247
  -12.9751  -25.0998  -38.8560 LP  0  0  0  0  0  0  0  0  0  0  0  0  # atno 5245 bound_to 1931
  -13.6566  -24.8484  -40.3185 LP  0  0  0  0  0  0  0  0  0  0  0  0  # atno 5246 bound_to 1931
  -12.6179  -23.6759  -30.9412 LP  0  0  0  0  0  0  0  0  0  0  0  0  # atno 5265 bound_to 1070
  -11.1381  -23.1218  -31.3532 LP  0  0  0  0  0  0  0  0  0  0  0  0  # atno 5266 bound_to 1070

$$$$
EZ_21|Lisa_paper2_min|sdf|9|dock9
  -GOLD-  10202014373D 1   1.00000     0.00000

 45 48  0  0  0  0  0  0  0  0  1 V2000
  -20.8743  -24.6646  -37.8145 C   0  0  0  0  0  0  0  0  0  0  0  0
  -20.5145  -23.7997  -38.8506 C   0  0  0  0  0  0  0  0  0  0  0  0
  -19.9002  -25.3035  -37.0369 C   0  0  0  0  0  0  0  0  0  0  0  0
  -19.1721  -23.5416  -39.1474 C   0  0  0  0  0  0  0  0  0  0  0  0
  -11.9592  -28.1701  -34.9260 C   0  0  0  0  0  0  0  0  0  0  0  0
  -11.1294  -26.1402  -35.9402 C   0  0  0  0  0  0  0  0  0  0  0  0
   -5.4193  -29.9131  -34.1816 C   0  0  0  0  0  0  0  0  0  0  0  0
  -13.2686  -27.7608  -35.1780 C   0  0  0  0  0  0  0  0  0  0  0  0
  -12.4388  -25.7310  -36.1922 C   0  0  0  0  0  0  0  0  0  0  0  0
   -4.5225  -30.9761  -34.0760 C   0  0  0  0  0  0  0  0  0  0  0  0
   -7.1234  -31.4296  -34.9772 C   0  0  0  0  0  0  0  0  0  0  0  0
  -18.5466  -25.0558  -37.3215 C   0  0  0  0  0  0  0  0  0  0  0  0
  -18.2193  -24.1888  -38.3602 C   0  0  0  0  0  0  0  0  0  0  0  0
  -10.8896  -27.3598  -35.3070 C   0  0  0  0  0  0  0  0  0  0  0  0
   -6.7198  -30.1398  -34.6322 C   0  0  0  0  0  0  0  0  0  0  0  0
  -13.5085  -26.5413  -35.8112 C   0  0  0  0  0  0  0  0  0  0  0  0
   -4.9261  -32.2661  -34.4210 C   0  0  0  0  0  0  0  0  0  0  0  0
   -6.2266  -32.4928  -34.8716 C   0  0  0  0  0  0  0  0  0  0  0  0
  -16.4127  -24.9968  -37.3712 C   0  0  0  0  0  0  0  0  0  0  0  0
   -8.9822  -29.0363  -35.0334 C   0  0  0  0  0  0  0  0  0  0  0  0
  -14.9742  -25.1969  -37.1150 C   0  0  0  0  0  0  0  0  0  0  0  0
  -17.4117  -25.5477  -36.7187 N   0  0  0  0  0  0  0  0  0  0  0  0
  -16.8481  -24.1700  -38.3691 N   0  0  0  0  0  0  0  0  0  0  0  0
   -9.5798  -27.7690  -35.0549 N   0  0  0  0  0  0  0  0  0  0  0  0
   -7.6311  -29.0594  -34.7387 N   0  0  0  0  0  0  0  0  0  0  0  0
  -14.7923  -26.1399  -36.0583 O   0  0  0  0  0  0  0  0  0  0  0  0
   -9.9322  -30.3474  -35.5014 S   0  0  0  0  0  0  0  0  0  0  0  0
   -3.7678  -33.5404  -34.2714 Cl  0  0  0  0  0  0  0  0  0  0  0  0
   -6.7850  -34.0675  -35.3161 Cl  0  0  0  0  0  0  0  0  0  0  0  0
  -21.9262  -24.8448  -37.6075 H   0  0  0  0  0  0  0  0  0  0  0  0
  -21.2921  -23.3185  -39.4389 H   0  0  0  0  0  0  0  0  0  0  0  0
  -20.1906  -25.9729  -36.2336 H   0  0  0  0  0  0  0  0  0  0  0  0
  -18.8911  -22.8698  -39.9505 H   0  0  0  0  0  0  0  0  0  0  0  0
  -11.7839  -29.1224  -34.4321 H   0  0  0  0  0  0  0  0  0  0  0  0
  -10.3038  -25.5006  -36.2414 H   0  0  0  0  0  0  0  0  0  0  0  0
   -5.0950  -28.9121  -33.9087 H   0  0  0  0  0  0  0  0  0  0  0  0
  -14.0976  -28.3964  -34.8790 H   0  0  0  0  0  0  0  0  0  0  0  0
  -12.6194  -24.7799  -36.6857 H   0  0  0  0  0  0  0  0  0  0  0  0
   -3.5134  -30.7812  -33.7215 H   0  0  0  0  0  0  0  0  0  0  0  0
   -8.1389  -31.6001  -35.3294 H   0  0  0  0  0  0  0  0  0  0  0  0
  -14.4408  -25.5772  -38.0046 H   0  0  0  0  0  0  0  0  0  0  0  0
  -14.4714  -24.2572  -36.8242 H   0  0  0  0  0  0  0  0  0  0  0  0
  -16.2656  -23.6376  -39.0018 H   0  0  0  0  0  0  0  0  0  0  0  0
   -8.9071  -27.0131  -34.8783 H   0  0  0  0  0  0  0  0  0  0  0  0
   -7.1922  -28.1437  -34.6806 H   0  0  0  0  0  0  0  0  0  0  0  0
  1  2  2  0  0  0  0
  1  3  1  0  0  0  0
  2  4  1  0  0  0  0
  3 12  2  0  0  0  0
  4 13  2  0  0  0  0
  5  8  1  0  0  0  0
  5 14  2  0  0  0  0
  6  9  2  0  0  0  0
  6 14  1  0  0  0  0
  7 10  1  0  0  0  0
  7 15  2  0  0  0  0
  8 16  2  0  0  0  0
  9 16  1  0  0  0  0
 10 17  2  0  0  0  0
 11 15  1  0  0  0  0
 11 18  2  0  0  0  0
 12 13  1  0  0  0  0
 12 22  1  0  0  0  0
 13 23  1  0  0  0  0
 14 24  1  0  0  0  0
 15 25  1  0  0  0  0
 16 26  1  0  0  0  0
 17 18  1  0  0  0  0
 17 28  1  0  0  0  0
 18 29  1  0  0  0  0
 19 21  1  0  0  0  0
 19 22  2  0  0  0  0
 19 23  1  0  0  0  0
 20 24  1  0  0  0  0
 20 25  1  0  0  0  0
 20 27  2  0  0  0  0
 21 26  1  0  0  0  0
  1 30  1  0  0  0  0
  2 31  1  0  0  0  0
  3 32  1  0  0  0  0
  4 33  1  0  0  0  0
  5 34  1  0  0  0  0
  6 35  1  0  0  0  0
  7 36  1  0  0  0  0
  8 37  1  0  0  0  0
  9 38  1  0  0  0  0
 10 39  1  0  0  0  0
 11 40  1  0  0  0  0
 21 41  1  0  0  0  0
 21 42  1  0  0  0  0
 23 43  1  0  0  0  0
 24 44  1  0  0  0  0
 25 45  1  0  0  0  0
M  END
> <Name>
EZ_21

> <SourceTag>
EZ_21

> <Activity_sEH>
270.9

> <Activity_FLAP>
0.5

> <Gold.Version>
5.2

> <Gold.Id.Protein>
6HGV|6HGV_protein|mol2

> <Gold.PLP.Fitness>
74.7659

> <Gold.PLP.PLP>
-72.5734

> <Gold.PLP.part.hbond>
-2.0000

> <Gold.PLP.part.metal>
0.0000

> <Gold.PLP.part.buried>
5.2528

> <Gold.PLP.part.nonpolar>
-75.8528

> <Gold.PLP.part.repulsive>
0.1285

> <Gold.PLP.ligand.clash>
0.0000

> <Gold.PLP.ligand.torsion>
0.5863

> <Gold.PLP.Chemscore.Hbond>
0.6622

> <Gold.PLP.Chemscore.CHOScore>
0.0000

> <Gold.PLP.Chemscore.Metal>
0.0000

> <Gold.Chemscore.Hbonds>
donor molecule, donor type, donor heavy atom, donor atom, acceptor molecule, acceptor atom, score
      P1  H  1256  3854       L1    27  0.66

> <Gold.PLP.Chemscore.Internal.Correction>
0.5672

> <Gold.Protein.RotatedTorsions>
[ 3525  925  924  922 ] final -155.78 input   59.99 | X-H torsion
[ 3781 1176 1175 1172 ] final -127.14 input   60.00 | X-H torsion
[ 4531 1957 1955 1953 ] final   95.23 input   60.00 | X-H torsion
[ 3847 1247 1246 1244 ] final  144.13 input   60.00 | X-H torsion
[ 4507 1931 1930 1928 ] final -129.05 input   60.00 | X-H torsion
[ 3677 1070 1069 1066 ] final  -21.40 input   60.00 | X-H torsion

> <Gold.Protein.ActiveResidues>
 GLY266  PHE267  PRO268  GLU269  MET310  HIS334  ASP335  TRP336  GLY337  GLY338 
 MET339  LEU340  TRP342  TYR343  LEU358  ASN359  THR360  PRO361  ILE363  ALA365 
 MET369  SER370  PRO371  LEU372  GLU373  SER374  ILE375  LYS376  ALA377  ASN378 
 VAL380  PHE381  ASP382  TYR383  GLN384  PHE387  GLN388  LEU397  SER407  LEU408 
 PHE409  ARG410  LEU417  MET419  LEU428  PHE429  PHE459  TRP465  TYR466  ASN468 
 MET469  GLU470  ASN472  TRP473  ALA476  ASP496  PHE497  VAL498  LEU499  MET503 
 HIS524  TRP525 

> <Gold.Protein.RotatedAtoms>
   -2.5038  -30.1452  -29.1351 H   0  0  0  0  0  0  0  0  0  0  0  0  # atno 3525 bound_to 925 
  -12.7251  -23.5311  -30.8030 H   0  0  0  0  0  0  0  0  0  0  0  0  # atno 3677 bound_to 1070
   -9.4032  -36.3104  -33.6560 H   0  0  0  0  0  0  0  0  0  0  0  0  # atno 3781 bound_to 1176
  -14.3521  -27.9208  -37.8928 H   0  0  0  0  0  0  0  0  0  0  0  0  # atno 3847 bound_to 1247
  -13.4097  -24.3667  -40.4804 H   0  0  0  0  0  0  0  0  0  0  0  0  # atno 4507 bound_to 1931
   -2.7366  -33.8778  -36.7357 H   0  0  0  0  0  0  0  0  0  0  0  0  # atno 4531 bound_to 1957
   -2.4629  -30.0171  -30.7569 LP  0  0  0  0  0  0  0  0  0  0  0  0  # atno 5201 bound_to 925 
   -3.7792  -29.5191  -29.9286 LP  0  0  0  0  0  0  0  0  0  0  0  0  # atno 5202 bound_to 925 
   -9.9378  -37.1470  -32.3667 LP  0  0  0  0  0  0  0  0  0  0  0  0  # atno 5205 bound_to 1176
  -10.7742  -37.1797  -33.7689 LP  0  0  0  0  0  0  0  0  0  0  0  0  # atno 5206 bound_to 1176
   -2.5360  -32.2629  -36.7435 LP  0  0  0  0  0  0  0  0  0  0  0  0  # atno 5213 bound_to 1957
   -1.2600  -33.2482  -37.0031 LP  0  0  0  0  0  0  0  0  0  0  0  0  # atno 5214 bound_to 1957
  -15.3738  -28.9153  -37.1086 LP  0  0  0  0  0  0  0  0  0  0  0  0  # atno 5227 bound_to 1247
  -15.8444  -27.4021  -37.5028 LP  0  0  0  0  0  0  0  0  0  0  0  0  # atno 5228 bound_to 1247
  -12.4297  -24.0113  -39.2309 LP  0  0  0  0  0  0  0  0  0  0  0  0  # atno 5245 bound_to 1931
  -13.3530  -25.3576  -39.1909 LP  0  0  0  0  0  0  0  0  0  0  0  0  # atno 5246 bound_to 1931
  -11.2336  -23.3182  -31.4180 LP  0  0  0  0  0  0  0  0  0  0  0  0  # atno 5265 bound_to 1070
  -11.8898  -22.1806  -30.4475 LP  0  0  0  0  0  0  0  0  0  0  0  0  # atno 5266 bound_to 1070

$$$$
Livi_174a|Lisa_paper2_min|sdf|10|dock10
  -GOLD-  10202014423D 1   1.00000     0.00000

 63 66  0  0  0  0  0  0  0  0  1 V2000
   -3.1771  -29.7044  -33.4128 C   0  0  0  0  0  0  0  0  0  0  0  0
   -3.3539  -31.0743  -33.5958 C   0  0  0  0  0  0  0  0  0  0  0  0
   -4.2373  -28.8150  -33.6106 C   0  0  0  0  0  0  0  0  0  0  0  0
   -4.5920  -31.6002  -33.9810 C   0  0  0  0  0  0  0  0  0  0  0  0
  -12.0600  -27.0876  -36.4893 C   0  0  0  0  0  0  0  0  0  0  0  0
  -16.4926  -23.2012  -39.5864 C   0  0  0  0  0  0  0  0  0  0  0  0
  -11.1431  -27.8841  -35.8034 C   0  0  0  0  0  0  0  0  0  0  0  0
  -17.7993  -23.0701  -40.0565 C   0  0  0  0  0  0  0  0  0  0  0  0
  -11.1653  -25.1233  -35.4038 C   0  0  0  0  0  0  0  0  0  0  0  0
  -17.2809  -24.6093  -37.7883 C   0  0  0  0  0  0  0  0  0  0  0  0
  -10.2484  -25.9199  -34.7180 C   0  0  0  0  0  0  0  0  0  0  0  0
   -5.4884  -29.3266  -33.9982 C   0  0  0  0  0  0  0  0  0  0  0  0
   -5.6502  -30.7010  -34.1774 C   0  0  0  0  0  0  0  0  0  0  0  0
  -12.0711  -25.7071  -36.2895 C   0  0  0  0  0  0  0  0  0  0  0  0
  -16.2334  -23.9709  -38.4522 C   0  0  0  0  0  0  0  0  0  0  0  0
  -10.2374  -27.3004  -34.9178 C   0  0  0  0  0  0  0  0  0  0  0  0
  -18.8468  -23.7084  -39.3925 C   0  0  0  0  0  0  0  0  0  0  0  0
  -18.5876  -24.4781  -38.2584 C   0  0  0  0  0  0  0  0  0  0  0  0
   -7.5206  -29.5894  -34.5717 C   0  0  0  0  0  0  0  0  0  0  0  0
   -7.6385  -32.0580  -34.8464 C   0  0  0  0  0  0  0  0  0  0  0  0
  -14.3499  -25.1761  -37.2611 C   0  0  0  0  0  0  0  0  0  0  0  0
   -9.2860  -25.2783  -33.7738 C   0  0  0  0  0  0  0  0  0  0  0  0
   -8.2241  -34.8589  -35.4943 C   0  0  0  0  0  0  0  0  0  0  0  0
   -6.2574  -35.3167  -34.0003 C   0  0  0  0  0  0  0  0  0  0  0  0
   -8.2547  -34.0900  -33.0980 C   0  0  0  0  0  0  0  0  0  0  0  0
   -8.9275  -29.2853  -34.9211 C   0  0  0  0  0  0  0  0  0  0  0  0
   -7.3840  -34.3392  -34.3286 C   0  0  0  0  0  0  0  0  0  0  0  0
   -6.6562  -28.6574  -34.2473 N   0  0  0  0  0  0  0  0  0  0  0  0
   -6.9796  -30.8593  -34.5508 N   0  0  0  0  0  0  0  0  0  0  0  0
  -12.9882  -24.9106  -36.9758 N   0  0  0  0  0  0  0  0  0  0  0  0
  -14.9077  -24.1041  -37.9760 N   0  0  0  0  0  0  0  0  0  0  0  0
   -8.8159  -32.0742  -35.1650 O   0  0  0  0  0  0  0  0  0  0  0  0
  -14.9473  -26.1950  -36.9291 O   0  0  0  0  0  0  0  0  0  0  0  0
   -9.3446  -28.0967  -34.2532 O   0  0  0  0  0  0  0  0  0  0  0  0
   -6.7809  -33.1018  -34.7182 O   0  0  0  0  0  0  0  0  0  0  0  0
  -20.4438  -23.5049  -40.0223 Cl  0  0  0  0  0  0  0  0  0  0  0  0
  -19.8431  -25.2914  -37.3916 Cl  0  0  0  0  0  0  0  0  0  0  0  0
   -2.2051  -29.3218  -33.1134 H   0  0  0  0  0  0  0  0  0  0  0  0
   -2.5153  -31.7479  -33.4370 H   0  0  0  0  0  0  0  0  0  0  0  0
   -4.0920  -27.7488  -33.4666 H   0  0  0  0  0  0  0  0  0  0  0  0
   -4.7034  -32.6695  -34.1168 H   0  0  0  0  0  0  0  0  0  0  0  0
  -12.7613  -27.5534  -37.1770 H   0  0  0  0  0  0  0  0  0  0  0  0
  -15.6835  -22.7007  -40.1121 H   0  0  0  0  0  0  0  0  0  0  0  0
  -11.1398  -28.9590  -35.9638 H   0  0  0  0  0  0  0  0  0  0  0  0
  -17.9827  -22.4675  -40.9427 H   0  0  0  0  0  0  0  0  0  0  0  0
  -11.1727  -24.0468  -35.2470 H   0  0  0  0  0  0  0  0  0  0  0  0
  -17.0726  -25.2073  -36.9033 H   0  0  0  0  0  0  0  0  0  0  0  0
   -9.7159  -25.2313  -32.7664 H   0  0  0  0  0  0  0  0  0  0  0  0
   -8.3440  -25.8385  -33.7258 H   0  0  0  0  0  0  0  0  0  0  0  0
   -9.0352  -24.2594  -34.0946 H   0  0  0  0  0  0  0  0  0  0  0  0
   -9.0338  -34.1602  -35.7330 H   0  0  0  0  0  0  0  0  0  0  0  0
   -7.6175  -35.0087  -36.3935 H   0  0  0  0  0  0  0  0  0  0  0  0
   -8.7030  -35.8108  -35.2374 H   0  0  0  0  0  0  0  0  0  0  0  0
   -5.6521  -34.9479  -33.1644 H   0  0  0  0  0  0  0  0  0  0  0  0
   -5.5751  -35.4259  -34.8510 H   0  0  0  0  0  0  0  0  0  0  0  0
   -6.6450  -36.3064  -33.7375 H   0  0  0  0  0  0  0  0  0  0  0  0
   -7.6523  -33.7172  -32.2617 H   0  0  0  0  0  0  0  0  0  0  0  0
   -9.0465  -33.3627  -33.3048 H   0  0  0  0  0  0  0  0  0  0  0  0
   -8.7187  -35.0214  -32.7538 H   0  0  0  0  0  0  0  0  0  0  0  0
   -9.0584  -29.1343  -36.0053 H   0  0  0  0  0  0  0  0  0  0  0  0
   -9.6057  -30.1032  -34.6274 H   0  0  0  0  0  0  0  0  0  0  0  0
  -12.6288  -24.0137  -37.3192 H   0  0  0  0  0  0  0  0  0  0  0  0
  -14.2879  -23.3244  -38.1807 H   0  0  0  0  0  0  0  0  0  0  0  0
  1  2  2  0  0  0  0
  1  3  1  0  0  0  0
  2  4  1  0  0  0  0
  3 12  2  0  0  0  0
  4 13  2  0  0  0  0
  5  7  2  0  0  0  0
  5 14  1  0  0  0  0
  6  8  1  0  0  0  0
  6 15  2  0  0  0  0
  7 16  1  0  0  0  0
  8 17  2  0  0  0  0
  9 11  1  0  0  0  0
  9 14  2  0  0  0  0
 10 15  1  0  0  0  0
 10 18  2  0  0  0  0
 11 16  2  0  0  0  0
 11 22  1  0  0  0  0
 12 13  1  0  0  0  0
 12 28  1  0  0  0  0
 13 29  1  0  0  0  0
 14 30  1  0  0  0  0
 15 31  1  0  0  0  0
 16 34  1  0  0  0  0
 17 18  1  0  0  0  0
 17 36  1  0  0  0  0
 18 37  1  0  0  0  0
 19 26  1  0  0  0  0
 19 28  2  0  0  0  0
 19 29  1  0  0  0  0
 20 29  1  0  0  0  0
 20 32  2  0  0  0  0
 20 35  1  0  0  0  0
 21 30  1  0  0  0  0
 21 31  1  0  0  0  0
 21 33  2  0  0  0  0
 23 27  1  0  0  0  0
 24 27  1  0  0  0  0
 25 27  1  0  0  0  0
 26 34  1  0  0  0  0
 27 35  1  0  0  0  0
  1 38  1  0  0  0  0
  2 39  1  0  0  0  0
  3 40  1  0  0  0  0
  4 41  1  0  0  0  0
  5 42  1  0  0  0  0
  6 43  1  0  0  0  0
  7 44  1  0  0  0  0
  8 45  1  0  0  0  0
  9 46  1  0  0  0  0
 10 47  1  0  0  0  0
 22 48  1  0  0  0  0
 22 49  1  0  0  0  0
 22 50  1  0  0  0  0
 23 51  1  0  0  0  0
 23 52  1  0  0  0  0
 23 53  1  0  0  0  0
 24 54  1  0  0  0  0
 24 55  1  0  0  0  0
 24 56  1  0  0  0  0
 25 57  1  0  0  0  0
 25 58  1  0  0  0  0
 25 59  1  0  0  0  0
 26 60  1  0  0  0  0
 26 61  1  0  0  0  0
 30 62  1  0  0  0  0
 31 63  1  0  0  0  0
M  END
> <Clean Energy>
84.5744

> <SourceTag>
Livi_174a

> <Activity_FLAP>
100

> <Activity_sEH>
0.7

> <Gold.Version>
5.2

> <Gold.Id.Protein>
6HGV|6HGV_protein|mol2

> <Gold.PLP.Fitness>
99.8784

> <Gold.PLP.PLP>
-98.7626

> <Gold.PLP.part.hbond>
-8.9103

> <Gold.PLP.part.metal>
0.0000

> <Gold.PLP.part.buried>
5.5381

> <Gold.PLP.part.nonpolar>
-96.1711

> <Gold.PLP.part.repulsive>
0.1016

> <Gold.PLP.ligand.clash>
0.0000

> <Gold.PLP.ligand.torsion>
1.8919

> <Gold.PLP.Chemscore.Hbond>
0.7805

> <Gold.PLP.Chemscore.CHOScore>
0.0000

> <Gold.PLP.Chemscore.Metal>
0.0000

> <Gold.Chemscore.Hbonds>
donor molecule, donor type, donor heavy atom, donor atom, acceptor molecule, acceptor atom, score
      L1  H    30    62       P1  1931  0.13
      L1  H    31    63       P1   854  0.02
      P1  H  1247  3847       L1    33  0.63

> <Gold.PLP.Chemscore.Internal.Correction>
0.4008

> <Gold.Protein.RotatedTorsions>
[ 3525  925  924  922 ] final  132.44 input   59.99 | X-H torsion
[ 3781 1176 1175 1172 ] final    1.13 input   60.00 | X-H torsion
[ 4531 1957 1955 1953 ] final  112.93 input   60.00 | X-H torsion
[ 3847 1247 1246 1244 ] final -135.11 input   60.00 | X-H torsion
[ 4507 1931 1930 1928 ] final -130.87 input   60.00 | X-H torsion
[ 3677 1070 1069 1066 ] final  -36.67 input   60.00 | X-H torsion

> <Gold.Protein.ActiveResidues>
 GLY266  PHE267  PRO268  GLU269  MET310  HIS334  ASP335  TRP336  GLY337  GLY338 
 MET339  LEU340  TRP342  TYR343  LEU358  ASN359  THR360  PRO361  ILE363  ALA365 
 MET369  SER370  PRO371  LEU372  GLU373  SER374  ILE375  LYS376  ALA377  ASN378 
 VAL380  PHE381  ASP382  TYR383  GLN384  PHE387  GLN388  LEU397  SER407  LEU408 
 PHE409  ARG410  LEU417  MET419  LEU428  PHE429  PHE459  TRP465  TYR466  ASN468 
 MET469  GLU470  ASN472  TRP473  ALA476  ASP496  PHE497  VAL498  LEU499  MET503 
 HIS524  TRP525 

> <Gold.Protein.RotatedAtoms>
   -2.0688  -30.2431  -30.1382 H   0  0  0  0  0  0  0  0  0  0  0  0  # atno 3525 bound_to 925 
  -12.5987  -23.6846  -30.9526 H   0  0  0  0  0  0  0  0  0  0  0  0  # atno 3677 bound_to 1070
  -10.8045  -37.2459  -33.6543 H   0  0  0  0  0  0  0  0  0  0  0  0  # atno 3781 bound_to 1176
  -15.3206  -27.1978  -37.7892 H   0  0  0  0  0  0  0  0  0  0  0  0  # atno 3847 bound_to 1247
  -13.3927  -24.3423  -40.4807 H   0  0  0  0  0  0  0  0  0  0  0  0  # atno 4507 bound_to 1931
   -2.4877  -34.0142  -36.7854 H   0  0  0  0  0  0  0  0  0  0  0  0  # atno 4531 bound_to 1957
   -3.4739  -29.5878  -30.6324 LP  0  0  0  0  0  0  0  0  0  0  0  0  # atno 5201 bound_to 925 
   -3.2063  -29.8499  -29.0429 LP  0  0  0  0  0  0  0  0  0  0  0  0  # atno 5202 bound_to 925 
   -9.4762  -36.3132  -33.7705 LP  0  0  0  0  0  0  0  0  0  0  0  0  # atno 5205 bound_to 1176
   -9.8246  -37.0714  -32.3668 LP  0  0  0  0  0  0  0  0  0  0  0  0  # atno 5206 bound_to 1176
   -2.7789  -32.4154  -36.7000 LP  0  0  0  0  0  0  0  0  0  0  0  0  # atno 5213 bound_to 1957
   -1.2676  -32.9583  -36.9967 LP  0  0  0  0  0  0  0  0  0  0  0  0  # atno 5214 bound_to 1957
  -14.3635  -28.5076  -37.6611 LP  0  0  0  0  0  0  0  0  0  0  0  0  # atno 5227 bound_to 1247
  -15.8793  -28.5380  -37.0545 LP  0  0  0  0  0  0  0  0  0  0  0  0  # atno 5228 bound_to 1247
  -12.4289  -24.0298  -39.2074 LP  0  0  0  0  0  0  0  0  0  0  0  0  # atno 5245 bound_to 1931
  -13.3709  -25.3637  -39.2142 LP  0  0  0  0  0  0  0  0  0  0  0  0  # atno 5246 bound_to 1931
  -11.1310  -23.1016  -31.3451 LP  0  0  0  0  0  0  0  0  0  0  0  0  # atno 5265 bound_to 1070
  -12.1198  -22.2426  -30.3698 LP  0  0  0  0  0  0  0  0  0  0  0  0  # atno 5266 bound_to 1070

$$$$
Livi_174a|Lisa_paper2_min|sdf|10|dock9
  -GOLD-  10202014413D 1   1.00000     0.00000

 63 66  0  0  0  0  0  0  0  0  1 V2000
  -11.1053  -33.5765  -35.1907 C   0  0  0  0  0  0  0  0  0  0  0  0
   -9.8107  -34.0492  -34.9861 C   0  0  0  0  0  0  0  0  0  0  0  0
  -11.3699  -32.2039  -35.2072 C   0  0  0  0  0  0  0  0  0  0  0  0
   -8.7401  -33.1693  -34.7921 C   0  0  0  0  0  0  0  0  0  0  0  0
  -11.7240  -27.0562  -37.1388 C   0  0  0  0  0  0  0  0  0  0  0  0
  -17.5738  -24.2380  -39.8178 C   0  0  0  0  0  0  0  0  0  0  0  0
  -10.7150  -27.4576  -36.2634 C   0  0  0  0  0  0  0  0  0  0  0  0
  -18.9197  -23.9057  -39.9711 C   0  0  0  0  0  0  0  0  0  0  0  0
  -12.7077  -25.7123  -35.3886 C   0  0  0  0  0  0  0  0  0  0  0  0
  -18.0280  -25.0490  -37.5877 C   0  0  0  0  0  0  0  0  0  0  0  0
  -11.6987  -26.1138  -34.5131 C   0  0  0  0  0  0  0  0  0  0  0  0
  -10.3055  -31.3056  -35.0136 C   0  0  0  0  0  0  0  0  0  0  0  0
   -9.0143  -31.7941  -34.8101 C   0  0  0  0  0  0  0  0  0  0  0  0
  -12.7204  -26.1835  -36.7014 C   0  0  0  0  0  0  0  0  0  0  0  0
  -17.1279  -24.8097  -38.6260 C   0  0  0  0  0  0  0  0  0  0  0  0
  -10.7024  -26.9865  -34.9506 C   0  0  0  0  0  0  0  0  0  0  0  0
  -19.8198  -24.1450  -38.9327 C   0  0  0  0  0  0  0  0  0  0  0  0
  -19.3739  -24.7167  -37.7410 C   0  0  0  0  0  0  0  0  0  0  0  0
   -9.0777  -29.5840  -34.7765 C   0  0  0  0  0  0  0  0  0  0  0  0
   -6.8432  -30.6181  -34.4287 C   0  0  0  0  0  0  0  0  0  0  0  0
  -15.0950  -25.5314  -37.2972 C   0  0  0  0  0  0  0  0  0  0  0  0
  -11.7006  -25.5995  -33.1114 C   0  0  0  0  0  0  0  0  0  0  0  0
   -4.2780  -31.3490  -33.2632 C   0  0  0  0  0  0  0  0  0  0  0  0
   -4.5675  -33.4566  -34.5987 C   0  0  0  0  0  0  0  0  0  0  0  0
   -4.4967  -31.2349  -35.7679 C   0  0  0  0  0  0  0  0  0  0  0  0
   -8.6561  -28.1675  -34.6785 C   0  0  0  0  0  0  0  0  0  0  0  0
   -4.9215  -31.9743  -34.5000 C   0  0  0  0  0  0  0  0  0  0  0  0
  -10.3232  -29.9372  -34.9889 N   0  0  0  0  0  0  0  0  0  0  0  0
   -8.2231  -30.6617  -34.6572 N   0  0  0  0  0  0  0  0  0  0  0  0
  -13.7295  -25.7821  -37.5773 N   0  0  0  0  0  0  0  0  0  0  0  0
  -15.7625  -25.1472  -38.4712 N   0  0  0  0  0  0  0  0  0  0  0  0
   -6.2517  -29.5577  -34.3102 O   0  0  0  0  0  0  0  0  0  0  0  0
  -15.6115  -25.6366  -36.1893 O   0  0  0  0  0  0  0  0  0  0  0  0
   -9.7050  -27.3904  -34.1050 O   0  0  0  0  0  0  0  0  0  0  0  0
   -6.3431  -31.8783  -34.3713 O   0  0  0  0  0  0  0  0  0  0  0  0
  -21.4737  -23.7084  -39.1825 Cl  0  0  0  0  0  0  0  0  0  0  0  0
  -20.4402  -25.0354  -36.4179 Cl  0  0  0  0  0  0  0  0  0  0  0  0
  -11.9191  -34.2811  -35.3389 H   0  0  0  0  0  0  0  0  0  0  0  0
   -9.6278  -35.1209  -34.9765 H   0  0  0  0  0  0  0  0  0  0  0  0
  -12.3812  -31.8428  -35.3668 H   0  0  0  0  0  0  0  0  0  0  0  0
   -7.7426  -33.5625  -34.6349 H   0  0  0  0  0  0  0  0  0  0  0  0
  -11.7239  -27.4298  -38.1597 H   0  0  0  0  0  0  0  0  0  0  0  0
  -16.8810  -24.0487  -40.6337 H   0  0  0  0  0  0  0  0  0  0  0  0
   -9.9418  -28.1377  -36.6106 H   0  0  0  0  0  0  0  0  0  0  0  0
  -19.2499  -23.4623  -40.9072 H   0  0  0  0  0  0  0  0  0  0  0  0
  -13.4841  -25.0316  -35.0461 H   0  0  0  0  0  0  0  0  0  0  0  0
  -17.6739  -25.4940  -36.6599 H   0  0  0  0  0  0  0  0  0  0  0  0
  -12.2745  -26.2702  -32.4612 H   0  0  0  0  0  0  0  0  0  0  0  0
  -10.6801  -25.5193  -32.7168 H   0  0  0  0  0  0  0  0  0  0  0  0
  -12.1433  -24.5970  -33.0572 H   0  0  0  0  0  0  0  0  0  0  0  0
   -4.5296  -30.2850  -33.1888 H   0  0  0  0  0  0  0  0  0  0  0  0
   -4.6019  -31.8480  -32.3440 H   0  0  0  0  0  0  0  0  0  0  0  0
   -3.1848  -31.4048  -33.3206 H   0  0  0  0  0  0  0  0  0  0  0  0
   -5.0271  -33.9093  -35.4847 H   0  0  0  0  0  0  0  0  0  0  0  0
   -4.9541  -34.0085  -33.7343 H   0  0  0  0  0  0  0  0  0  0  0  0
   -3.4850  -33.6108  -34.6525 H   0  0  0  0  0  0  0  0  0  0  0  0
   -4.9581  -31.6833  -36.6553 H   0  0  0  0  0  0  0  0  0  0  0  0
   -4.7758  -30.1769  -35.7305 H   0  0  0  0  0  0  0  0  0  0  0  0
   -3.4127  -31.3041  -35.9148 H   0  0  0  0  0  0  0  0  0  0  0  0
   -7.7577  -28.0485  -34.0508 H   0  0  0  0  0  0  0  0  0  0  0  0
   -8.4141  -27.7454  -35.6676 H   0  0  0  0  0  0  0  0  0  0  0  0
  -13.4447  -25.6511  -38.5537 H   0  0  0  0  0  0  0  0  0  0  0  0
  -15.2016  -25.1047  -39.3183 H   0  0  0  0  0  0  0  0  0  0  0  0
  1  2  2  0  0  0  0
  1  3  1  0  0  0  0
  2  4  1  0  0  0  0
  3 12  2  0  0  0  0
  4 13  2  0  0  0  0
  5  7  2  0  0  0  0
  5 14  1  0  0  0  0
  6  8  1  0  0  0  0
  6 15  2  0  0  0  0
  7 16  1  0  0  0  0
  8 17  2  0  0  0  0
  9 11  1  0  0  0  0
  9 14  2  0  0  0  0
 10 15  1  0  0  0  0
 10 18  2  0  0  0  0
 11 16  2  0  0  0  0
 11 22  1  0  0  0  0
 12 13  1  0  0  0  0
 12 28  1  0  0  0  0
 13 29  1  0  0  0  0
 14 30  1  0  0  0  0
 15 31  1  0  0  0  0
 16 34  1  0  0  0  0
 17 18  1  0  0  0  0
 17 36  1  0  0  0  0
 18 37  1  0  0  0  0
 19 26  1  0  0  0  0
 19 28  2  0  0  0  0
 19 29  1  0  0  0  0
 20 29  1  0  0  0  0
 20 32  2  0  0  0  0
 20 35  1  0  0  0  0
 21 30  1  0  0  0  0
 21 31  1  0  0  0  0
 21 33  2  0  0  0  0
 23 27  1  0  0  0  0
 24 27  1  0  0  0  0
 25 27  1  0  0  0  0
 26 34  1  0  0  0  0
 27 35  1  0  0  0  0
  1 38  1  0  0  0  0
  2 39  1  0  0  0  0
  3 40  1  0  0  0  0
  4 41  1  0  0  0  0
  5 42  1  0  0  0  0
  6 43  1  0  0  0  0
  7 44  1  0  0  0  0
  8 45  1  0  0  0  0
  9 46  1  0  0  0  0
 10 47  1  0  0  0  0
 22 48  1  0  0  0  0
 22 49  1  0  0  0  0
 22 50  1  0  0  0  0
 23 51  1  0  0  0  0
 23 52  1  0  0  0  0
 23 53  1  0  0  0  0
 24 54  1  0  0  0  0
 24 55  1  0  0  0  0
 24 56  1  0  0  0  0
 25 57  1  0  0  0  0
 25 58  1  0  0  0  0
 25 59  1  0  0  0  0
 26 60  1  0  0  0  0
 26 61  1  0  0  0  0
 30 62  1  0  0  0  0
 31 63  1  0  0  0  0
M  END
> <Clean Energy>
84.5744

> <SourceTag>
Livi_174a

> <Activity_FLAP>
100

> <Activity_sEH>
0.7

> <Gold.Version>
5.2

> <Gold.Id.Protein>
6HGV|6HGV_protein|mol2

> <Gold.PLP.Fitness>
98.9776

> <Gold.PLP.PLP>
-97.9660

> <Gold.PLP.part.hbond>
-8.9671

> <Gold.PLP.part.metal>
0.0000

> <Gold.PLP.part.buried>
4.7313

> <Gold.PLP.part.nonpolar>
-96.4653

> <Gold.PLP.part.repulsive>
0.1363

> <Gold.PLP.ligand.clash>
2.0342

> <Gold.PLP.ligand.torsion>
1.0523

> <Gold.PLP.Chemscore.Hbond>
1.1070

> <Gold.PLP.Chemscore.CHOScore>
0.0000

> <Gold.PLP.Chemscore.Metal>
0.0000

> <Gold.Chemscore.Hbonds>
donor molecule, donor type, donor heavy atom, donor atom, acceptor molecule, acceptor atom, score
      L1  H    30    62       P1  1931  0.68
      L1  H    31    63       P1  1931  0.41
      P1  H  1256  3854       L1    28  0.02

> <Gold.PLP.Chemscore.Internal.Correction>
0.4008

> <Gold.Protein.RotatedTorsions>
[ 3525  925  924  922 ] final   82.32 input   59.99 | X-H torsion
[ 3781 1176 1175 1172 ] final  126.98 input   60.00 | X-H torsion
[ 4531 1957 1955 1953 ] final  162.59 input   60.00 | X-H torsion
[ 3847 1247 1246 1244 ] final  -43.82 input   60.00 | X-H torsion
[ 4507 1931 1930 1928 ] final  144.52 input   60.00 | X-H torsion
[ 3677 1070 1069 1066 ] final -121.05 input   60.00 | X-H torsion

> <Gold.Protein.ActiveResidues>
 GLY266  PHE267  PRO268  GLU269  MET310  HIS334  ASP335  TRP336  GLY337  GLY338 
 MET339  LEU340  TRP342  TYR343  LEU358  ASN359  THR360  PRO361  ILE363  ALA365 
 MET369  SER370  PRO371  LEU372  GLU373  SER374  ILE375  LYS376  ALA377  ASN378 
 VAL380  PHE381  ASP382  TYR383  GLN384  PHE387  GLN388  LEU397  SER407  LEU408 
 PHE409  ARG410  LEU417  MET419  LEU428  PHE429  PHE459  TRP465  TYR466  ASN468 
 MET469  GLU470  ASN472  TRP473  ALA476  ASP496  PHE497  VAL498  LEU499  MET503 
 HIS524  TRP525 

> <Gold.Protein.RotatedAtoms>
   -2.4897  -30.0022  -30.7657 H   0  0  0  0  0  0  0  0  0  0  0  0  # atno 3525 bound_to 925 
  -11.4500  -23.5678  -31.4509 H   0  0  0  0  0  0  0  0  0  0  0  0  # atno 3677 bound_to 1070
   -9.7480  -37.0164  -32.3851 H   0  0  0  0  0  0  0  0  0  0  0  0  # atno 3781 bound_to 1176
  -16.0545  -28.1170  -37.1495 H   0  0  0  0  0  0  0  0  0  0  0  0  # atno 3847 bound_to 1247
  -12.5570  -23.7953  -39.7123 H   0  0  0  0  0  0  0  0  0  0  0  0  # atno 4507 bound_to 1931
   -1.7184  -33.9401  -36.9304 H   0  0  0  0  0  0  0  0  0  0  0  0  # atno 4531 bound_to 1957
   -3.7794  -29.5218  -29.8974 LP  0  0  0  0  0  0  0  0  0  0  0  0  # atno 5201 bound_to 925 
   -2.4769  -30.1584  -29.1459 LP  0  0  0  0  0  0  0  0  0  0  0  0  # atno 5202 bound_to 925 
  -10.8276  -37.2893  -33.5717 LP  0  0  0  0  0  0  0  0  0  0  0  0  # atno 5205 bound_to 1176
   -9.5371  -36.3264  -33.8437 LP  0  0  0  0  0  0  0  0  0  0  0  0  # atno 5206 bound_to 1176
   -3.1049  -33.1353  -36.6504 LP  0  0  0  0  0  0  0  0  0  0  0  0  # atno 5213 bound_to 1957
   -1.7163  -32.3130  -36.9002 LP  0  0  0  0  0  0  0  0  0  0  0  0  # atno 5214 bound_to 1957
  -14.8841  -27.2915  -37.9220 LP  0  0  0  0  0  0  0  0  0  0  0  0  # atno 5227 bound_to 1247
  -14.6197  -28.8284  -37.4378 LP  0  0  0  0  0  0  0  0  0  0  0  0  # atno 5228 bound_to 1247
  -12.9908  -25.1149  -38.8646 LP  0  0  0  0  0  0  0  0  0  0  0  0  # atno 5245 bound_to 1931
  -13.6506  -24.8295  -40.3308 LP  0  0  0  0  0  0  0  0  0  0  0  0  # atno 5246 bound_to 1931
  -11.5930  -22.1891  -30.5983 LP  0  0  0  0  0  0  0  0  0  0  0  0  # atno 5265 bound_to 1070
  -12.8146  -23.2727  -30.6149 LP  0  0  0  0  0  0  0  0  0  0  0  0  # atno 5266 bound_to 1070

$$$$
Livi_174a|Lisa_paper2_min|sdf|10|dock5
  -GOLD-  10202014393D 1   1.00000     0.00000

 63 66  0  0  0  0  0  0  0  0  1 V2000
  -11.1131  -33.6714  -35.1957 C   0  0  0  0  0  0  0  0  0  0  0  0
   -9.8101  -34.1463  -35.0612 C   0  0  0  0  0  0  0  0  0  0  0  0
  -11.3744  -32.2982  -35.2117 C   0  0  0  0  0  0  0  0  0  0  0  0
   -8.7276  -33.2681  -34.9389 C   0  0  0  0  0  0  0  0  0  0  0  0
  -11.7217  -26.9978  -37.2237 C   0  0  0  0  0  0  0  0  0  0  0  0
  -17.7128  -24.1320  -39.5372 C   0  0  0  0  0  0  0  0  0  0  0  0
  -10.6783  -27.4184  -36.3991 C   0  0  0  0  0  0  0  0  0  0  0  0
  -19.0646  -23.8012  -39.6293 C   0  0  0  0  0  0  0  0  0  0  0  0
  -12.7395  -25.8566  -35.3532 C   0  0  0  0  0  0  0  0  0  0  0  0
  -18.1100  -25.1566  -37.3856 C   0  0  0  0  0  0  0  0  0  0  0  0
  -11.6961  -26.2772  -34.5286 C   0  0  0  0  0  0  0  0  0  0  0  0
  -10.2980  -31.4015  -35.0895 C   0  0  0  0  0  0  0  0  0  0  0  0
   -8.9986  -31.8922  -34.9558 C   0  0  0  0  0  0  0  0  0  0  0  0
  -12.7524  -26.2168  -36.7007 C   0  0  0  0  0  0  0  0  0  0  0  0
  -17.2354  -24.8098  -38.4153 C   0  0  0  0  0  0  0  0  0  0  0  0
  -10.6655  -27.0582  -35.0517 C   0  0  0  0  0  0  0  0  0  0  0  0
  -19.9392  -24.1479  -38.5995 C   0  0  0  0  0  0  0  0  0  0  0  0
  -19.4619  -24.8257  -37.4776 C   0  0  0  0  0  0  0  0  0  0  0  0
   -9.0538  -29.6816  -34.9424 C   0  0  0  0  0  0  0  0  0  0  0  0
   -6.8058  -30.7196  -34.7132 C   0  0  0  0  0  0  0  0  0  0  0  0
  -15.1503  -25.5586  -37.1862 C   0  0  0  0  0  0  0  0  0  0  0  0
  -11.6983  -25.8822  -33.0887 C   0  0  0  0  0  0  0  0  0  0  0  0
   -4.5066  -31.4840  -33.1595 C   0  0  0  0  0  0  0  0  0  0  0  0
   -4.5054  -33.5444  -34.5962 C   0  0  0  0  0  0  0  0  0  0  0  0
   -4.2275  -31.2829  -35.6528 C   0  0  0  0  0  0  0  0  0  0  0  0
   -8.6234  -28.2656  -34.8841 C   0  0  0  0  0  0  0  0  0  0  0  0
   -4.8868  -32.0676  -34.5195 C   0  0  0  0  0  0  0  0  0  0  0  0
  -10.3105  -30.0328  -35.0786 N   0  0  0  0  0  0  0  0  0  0  0  0
   -8.1967  -30.7609  -34.8611 N   0  0  0  0  0  0  0  0  0  0  0  0
  -13.7959  -25.7962  -37.5257 N   0  0  0  0  0  0  0  0  0  0  0  0
  -15.8641  -25.1458  -38.3227 N   0  0  0  0  0  0  0  0  0  0  0  0
   -6.2055  -29.6600  -34.6404 O   0  0  0  0  0  0  0  0  0  0  0  0
  -15.6230  -25.6955  -36.0624 O   0  0  0  0  0  0  0  0  0  0  0  0
   -9.6340  -27.4794  -34.2569 O   0  0  0  0  0  0  0  0  0  0  0  0
   -6.3067  -31.9808  -34.6712 O   0  0  0  0  0  0  0  0  0  0  0  0
  -21.6020  -23.7073  -38.7710 Cl  0  0  0  0  0  0  0  0  0  0  0  0
  -20.4955  -25.2804  -36.1684 Cl  0  0  0  0  0  0  0  0  0  0  0  0
  -11.9360  -34.3747  -35.2890 H   0  0  0  0  0  0  0  0  0  0  0  0
   -9.6299  -35.2184  -35.0507 H   0  0  0  0  0  0  0  0  0  0  0  0
  -12.3922  -31.9354  -35.3164 H   0  0  0  0  0  0  0  0  0  0  0  0
   -7.7238  -33.6629  -34.8354 H   0  0  0  0  0  0  0  0  0  0  0  0
  -11.7214  -27.2847  -38.2722 H   0  0  0  0  0  0  0  0  0  0  0  0
  -17.0401  -23.8584  -40.3460 H   0  0  0  0  0  0  0  0  0  0  0  0
   -9.8784  -28.0266  -36.8129 H   0  0  0  0  0  0  0  0  0  0  0  0
  -19.4195  -23.2742  -40.5115 H   0  0  0  0  0  0  0  0  0  0  0  0
  -13.5426  -25.2474  -34.9439 H   0  0  0  0  0  0  0  0  0  0  0  0
  -17.7315  -25.6841  -36.5123 H   0  0  0  0  0  0  0  0  0  0  0  0
  -12.2261  -26.6333  -32.4893 H   0  0  0  0  0  0  0  0  0  0  0  0
  -10.6761  -25.7829  -32.7030 H   0  0  0  0  0  0  0  0  0  0  0  0
  -12.1895  -24.9117  -32.9443 H   0  0  0  0  0  0  0  0  0  0  0  0
   -4.7787  -30.4241  -33.1005 H   0  0  0  0  0  0  0  0  0  0  0  0
   -5.0005  -32.0160  -32.3399 H   0  0  0  0  0  0  0  0  0  0  0  0
   -3.4231  -31.5342  -33.0015 H   0  0  0  0  0  0  0  0  0  0  0  0
   -4.7764  -33.9672  -35.5704 H   0  0  0  0  0  0  0  0  0  0  0  0
   -5.0494  -34.1275  -33.8444 H   0  0  0  0  0  0  0  0  0  0  0  0
   -3.4320  -33.6931  -34.4402 H   0  0  0  0  0  0  0  0  0  0  0  0
   -4.5001  -31.7013  -36.6284 H   0  0  0  0  0  0  0  0  0  0  0  0
   -4.5192  -30.2277  -35.6355 H   0  0  0  0  0  0  0  0  0  0  0  0
   -3.1353  -31.3434  -35.5847 H   0  0  0  0  0  0  0  0  0  0  0  0
   -7.6887  -28.1433  -34.3125 H   0  0  0  0  0  0  0  0  0  0  0  0
   -8.4398  -27.8542  -35.8902 H   0  0  0  0  0  0  0  0  0  0  0  0
  -13.5497  -25.6379  -38.5085 H   0  0  0  0  0  0  0  0  0  0  0  0
  -15.3366  -25.0784  -39.1894 H   0  0  0  0  0  0  0  0  0  0  0  0
  1  2  2  0  0  0  0
  1  3  1  0  0  0  0
  2  4  1  0  0  0  0
  3 12  2  0  0  0  0
  4 13  2  0  0  0  0
  5  7  2  0  0  0  0
  5 14  1  0  0  0  0
  6  8  1  0  0  0  0
  6 15  2  0  0  0  0
  7 16  1  0  0  0  0
  8 17  2  0  0  0  0
  9 11  1  0  0  0  0
  9 14  2  0  0  0  0
 10 15  1  0  0  0  0
 10 18  2  0  0  0  0
 11 16  2  0  0  0  0
 11 22  1  0  0  0  0
 12 13  1  0  0  0  0
 12 28  1  0  0  0  0
 13 29  1  0  0  0  0
 14 30  1  0  0  0  0
 15 31  1  0  0  0  0
 16 34  1  0  0  0  0
 17 18  1  0  0  0  0
 17 36  1  0  0  0  0
 18 37  1  0  0  0  0
 19 26  1  0  0  0  0
 19 28  2  0  0  0  0
 19 29  1  0  0  0  0
 20 29  1  0  0  0  0
 20 32  2  0  0  0  0
 20 35  1  0  0  0  0
 21 30  1  0  0  0  0
 21 31  1  0  0  0  0
 21 33  2  0  0  0  0
 23 27  1  0  0  0  0
 24 27  1  0  0  0  0
 25 27  1  0  0  0  0
 26 34  1  0  0  0  0
 27 35  1  0  0  0  0
  1 38  1  0  0  0  0
  2 39  1  0  0  0  0
  3 40  1  0  0  0  0
  4 41  1  0  0  0  0
  5 42  1  0  0  0  0
  6 43  1  0  0  0  0
  7 44  1  0  0  0  0
  8 45  1  0  0  0  0
  9 46  1  0  0  0  0
 10 47  1  0  0  0  0
 22 48  1  0  0  0  0
 22 49  1  0  0  0  0
 22 50  1  0  0  0  0
 23 51  1  0  0  0  0
 23 52  1  0  0  0  0
 23 53  1  0  0  0  0
 24 54  1  0  0  0  0
 24 55  1  0  0  0  0
 24 56  1  0  0  0  0
 25 57  1  0  0  0  0
 25 58  1  0  0  0  0
 25 59  1  0  0  0  0
 26 60  1  0  0  0  0
 26 61  1  0  0  0  0
 30 62  1  0  0  0  0
 31 63  1  0  0  0  0
M  END
> <Clean Energy>
84.5744

> <SourceTag>
Livi_174a

> <Activity_FLAP>
100

> <Activity_sEH>
0.7

> <Gold.Version>
5.2

> <Gold.Id.Protein>
6HGV|6HGV_protein|mol2

> <Gold.PLP.Fitness>
97.0612

> <Gold.PLP.PLP>
-95.7604

> <Gold.PLP.part.hbond>
-8.4405

> <Gold.PLP.part.metal>
0.0000

> <Gold.PLP.part.buried>
4.9202

> <Gold.PLP.part.nonpolar>
-93.6310

> <Gold.PLP.part.repulsive>
0.1350

> <Gold.PLP.ligand.clash>
2.1620

> <Gold.PLP.ligand.torsion>
0.7537

> <Gold.PLP.Chemscore.Hbond>
1.1282

> <Gold.PLP.Chemscore.CHOScore>
0.0000

> <Gold.PLP.Chemscore.Metal>
0.0000

> <Gold.Chemscore.Hbonds>
donor molecule, donor type, donor heavy atom, donor atom, acceptor molecule, acceptor atom, score
      L1  H    30    62       P1  1931  0.79
      L1  H    31    63       P1  1931  0.29
      P1  H  1256  3854       L1    28  0.04

> <Gold.PLP.Chemscore.Internal.Correction>
0.4483

> <Gold.Protein.RotatedTorsions>
[ 3525  925  924  922 ] final   20.10 input   59.99 | X-H torsion
[ 3781 1176 1175 1172 ] final   53.08 input   60.00 | X-H torsion
[ 4531 1957 1955 1953 ] final   52.76 input   60.00 | X-H torsion
[ 3847 1247 1246 1244 ] final -128.11 input   60.00 | X-H torsion
[ 4507 1931 1930 1928 ] final  141.92 input   60.00 | X-H torsion
[ 3677 1070 1069 1066 ] final  120.35 input   60.00 | X-H torsion

> <Gold.Protein.ActiveResidues>
 GLY266  PHE267  PRO268  GLU269  MET310  HIS334  ASP335  TRP336  GLY337  GLY338 
 MET339  LEU340  TRP342  TYR343  LEU358  ASN359  THR360  PRO361  ILE363  ALA365 
 MET369  SER370  PRO371  LEU372  GLU373  SER374  ILE375  LYS376  ALA377  ASN378 
 VAL380  PHE381  ASP382  TYR383  GLN384  PHE387  GLN388  LEU397  SER407  LEU408 
 PHE409  ARG410  LEU417  MET419  LEU428  PHE429  PHE459  TRP465  TYR466  ASN468 
 MET469  GLU470  ASN472  TRP473  ALA476  ASP496  PHE497  VAL498  LEU499  MET503 
 HIS524  TRP525 

> <Gold.Protein.RotatedAtoms>
   -3.3768  -29.6210  -30.7050 H   0  0  0  0  0  0  0  0  0  0  0  0  # atno 3525 bound_to 925 
  -11.5756  -22.2003  -30.6103 H   0  0  0  0  0  0  0  0  0  0  0  0  # atno 3677 bound_to 1070
  -10.6670  -37.4475  -32.8714 H   0  0  0  0  0  0  0  0  0  0  0  0  # atno 3781 bound_to 1176
  -15.4256  -27.2065  -37.7447 H   0  0  0  0  0  0  0  0  0  0  0  0  # atno 3847 bound_to 1247
  -12.5404  -23.8035  -39.6739 H   0  0  0  0  0  0  0  0  0  0  0  0  # atno 4507 bound_to 1931
   -3.0843  -33.3005  -36.6596 H   0  0  0  0  0  0  0  0  0  0  0  0  # atno 4531 bound_to 1957
   -3.3122  -29.7995  -29.0888 LP  0  0  0  0  0  0  0  0  0  0  0  0  # atno 5201 bound_to 925 
   -2.0507  -30.2646  -30.0156 LP  0  0  0  0  0  0  0  0  0  0  0  0  # atno 5202 bound_to 925 
  -10.1399  -36.6091  -34.1626 LP  0  0  0  0  0  0  0  0  0  0  0  0  # atno 5205 bound_to 1176
   -9.2993  -36.5725  -32.7631 LP  0  0  0  0  0  0  0  0  0  0  0  0  # atno 5206 bound_to 1176
   -1.8653  -32.2432  -36.8707 LP  0  0  0  0  0  0  0  0  0  0  0  0  # atno 5213 bound_to 1957
   -1.5805  -33.8491  -36.9526 LP  0  0  0  0  0  0  0  0  0  0  0  0  # atno 5214 bound_to 1957
  -14.3303  -28.4096  -37.7116 LP  0  0  0  0  0  0  0  0  0  0  0  0  # atno 5227 bound_to 1247
  -15.8068  -28.6272  -37.0488 LP  0  0  0  0  0  0  0  0  0  0  0  0  # atno 5228 bound_to 1247
  -13.0196  -25.1417  -38.8817 LP  0  0  0  0  0  0  0  0  0  0  0  0  # atno 5245 bound_to 1931
  -13.6385  -24.7944  -40.3524 LP  0  0  0  0  0  0  0  0  0  0  0  0  # atno 5246 bound_to 1931
  -12.8164  -23.2531  -30.6029 LP  0  0  0  0  0  0  0  0  0  0  0  0  # atno 5265 bound_to 1070
  -11.4648  -23.5857  -31.4568 LP  0  0  0  0  0  0  0  0  0  0  0  0  # atno 5266 bound_to 1070

$$$$
Livi_174a|Lisa_paper2_min|sdf|10|dock1
  -GOLD-  10202014373D 1   1.00000     0.00000

 63 66  0  0  0  0  0  0  0  0  1 V2000
   -4.3000  -30.8527  -35.5513 C   0  0  0  0  0  0  0  0  0  0  0  0
   -4.3548  -31.7573  -34.4929 C   0  0  0  0  0  0  0  0  0  0  0  0
   -5.4024  -30.0522  -35.8641 C   0  0  0  0  0  0  0  0  0  0  0  0
   -5.5092  -31.8919  -33.7137 C   0  0  0  0  0  0  0  0  0  0  0  0
  -12.6218  -27.2033  -36.0563 C   0  0  0  0  0  0  0  0  0  0  0  0
  -16.6390  -23.2054  -39.6780 C   0  0  0  0  0  0  0  0  0  0  0  0
  -11.7833  -27.9653  -35.2427 C   0  0  0  0  0  0  0  0  0  0  0  0
  -17.9428  -22.9770  -40.1178 C   0  0  0  0  0  0  0  0  0  0  0  0
  -11.3430  -25.2246  -35.5209 C   0  0  0  0  0  0  0  0  0  0  0  0
  -17.4894  -24.5253  -37.8419 C   0  0  0  0  0  0  0  0  0  0  0  0
  -10.5045  -25.9866  -34.7073 C   0  0  0  0  0  0  0  0  0  0  0  0
   -6.5708  -30.1749  -35.0913 C   0  0  0  0  0  0  0  0  0  0  0  0
   -6.6106  -31.0851  -34.0343 C   0  0  0  0  0  0  0  0  0  0  0  0
  -12.4016  -25.8329  -36.1954 C   0  0  0  0  0  0  0  0  0  0  0  0
  -16.4122  -23.9795  -38.5400 C   0  0  0  0  0  0  0  0  0  0  0  0
  -10.7247  -27.3569  -34.5682 C   0  0  0  0  0  0  0  0  0  0  0  0
  -19.0200  -23.5227  -39.4196 C   0  0  0  0  0  0  0  0  0  0  0  0
  -18.7932  -24.2969  -38.2815 C   0  0  0  0  0  0  0  0  0  0  0  0
   -8.5169  -29.9858  -34.2517 C   0  0  0  0  0  0  0  0  0  0  0  0
   -8.4207  -31.6516  -32.4080 C   0  0  0  0  0  0  0  0  0  0  0  0
  -14.6428  -25.1765  -37.1778 C   0  0  0  0  0  0  0  0  0  0  0  0
   -9.3761  -25.3191  -33.9928 C   0  0  0  0  0  0  0  0  0  0  0  0
   -7.6359  -31.4552  -29.7684 C   0  0  0  0  0  0  0  0  0  0  0  0
   -8.9011  -33.5618  -30.2892 C   0  0  0  0  0  0  0  0  0  0  0  0
   -6.3983  -33.6231  -30.0894 C   0  0  0  0  0  0  0  0  0  0  0  0
   -9.9056  -29.5229  -34.0261 C   0  0  0  0  0  0  0  0  0  0  0  0
   -7.6044  -32.7875  -30.5158 C   0  0  0  0  0  0  0  0  0  0  0  0
   -7.7591  -29.5058  -35.2090 N   0  0  0  0  0  0  0  0  0  0  0  0
   -7.8845  -30.9519  -33.4949 N   0  0  0  0  0  0  0  0  0  0  0  0
  -13.2405  -25.0710  -37.0093 N   0  0  0  0  0  0  0  0  0  0  0  0
  -15.0894  -24.2114  -38.0947 N   0  0  0  0  0  0  0  0  0  0  0  0
   -9.5597  -31.4489  -32.0210 O   0  0  0  0  0  0  0  0  0  0  0  0
  -15.3558  -25.9934  -36.6037 O   0  0  0  0  0  0  0  0  0  0  0  0
   -9.9116  -28.1195  -33.7743 O   0  0  0  0  0  0  0  0  0  0  0  0
   -7.5011  -32.5208  -31.9176 O   0  0  0  0  0  0  0  0  0  0  0  0
  -20.6116  -23.2012  -40.0127 Cl  0  0  0  0  0  0  0  0  0  0  0  0
  -20.0863  -24.9980  -37.3730 Cl  0  0  0  0  0  0  0  0  0  0  0  0
   -3.3912  -30.7676  -36.1409 H   0  0  0  0  0  0  0  0  0  0  0  0
   -3.4857  -32.3704  -34.2677 H   0  0  0  0  0  0  0  0  0  0  0  0
   -5.3526  -29.3498  -36.6905 H   0  0  0  0  0  0  0  0  0  0  0  0
   -5.5262  -32.6029  -32.8961 H   0  0  0  0  0  0  0  0  0  0  0  0
  -13.4437  -27.6880  -36.5771 H   0  0  0  0  0  0  0  0  0  0  0  0
  -15.8067  -22.7767  -40.2303 H   0  0  0  0  0  0  0  0  0  0  0  0
  -11.9603  -29.0324  -35.1388 H   0  0  0  0  0  0  0  0  0  0  0  0
  -18.1008  -22.3725  -41.0075 H   0  0  0  0  0  0  0  0  0  0  0  0
  -11.1700  -24.1560  -35.6285 H   0  0  0  0  0  0  0  0  0  0  0  0
  -17.3062  -25.1273  -36.9540 H   0  0  0  0  0  0  0  0  0  0  0  0
   -9.7044  -24.9686  -33.0073 H   0  0  0  0  0  0  0  0  0  0  0  0
   -8.5316  -26.0059  -33.8558 H   0  0  0  0  0  0  0  0  0  0  0  0
   -8.9993  -24.4597  -34.5617 H   0  0  0  0  0  0  0  0  0  0  0  0
   -6.7069  -30.8966  -29.9285 H   0  0  0  0  0  0  0  0  0  0  0  0
   -8.4765  -30.8319  -30.0904 H   0  0  0  0  0  0  0  0  0  0  0  0
   -7.7179  -31.6153  -28.6871 H   0  0  0  0  0  0  0  0  0  0  0  0
   -8.8829  -34.5185  -30.8236 H   0  0  0  0  0  0  0  0  0  0  0  0
   -9.7609  -33.0060  -30.6804 H   0  0  0  0  0  0  0  0  0  0  0  0
   -9.0719  -33.7616  -29.2264 H   0  0  0  0  0  0  0  0  0  0  0  0
   -6.3754  -34.5789  -30.6254 H   0  0  0  0  0  0  0  0  0  0  0  0
   -5.4565  -33.0979  -30.2790 H   0  0  0  0  0  0  0  0  0  0  0  0
   -6.4516  -33.8682  -29.0224 H   0  0  0  0  0  0  0  0  0  0  0  0
  -10.5509  -29.7183  -34.8983 H   0  0  0  0  0  0  0  0  0  0  0  0
  -10.3691  -30.0308  -33.1645 H   0  0  0  0  0  0  0  0  0  0  0  0
  -12.7807  -24.3371  -37.5584 H   0  0  0  0  0  0  0  0  0  0  0  0
  -14.3797  -23.6010  -38.4918 H   0  0  0  0  0  0  0  0  0  0  0  0
  1  2  2  0  0  0  0
  1  3  1  0  0  0  0
  2  4  1  0  0  0  0
  3 12  2  0  0  0  0
  4 13  2  0  0  0  0
  5  7  2  0  0  0  0
  5 14  1  0  0  0  0
  6  8  1  0  0  0  0
  6 15  2  0  0  0  0
  7 16  1  0  0  0  0
  8 17  2  0  0  0  0
  9 11  1  0  0  0  0
  9 14  2  0  0  0  0
 10 15  1  0  0  0  0
 10 18  2  0  0  0  0
 11 16  2  0  0  0  0
 11 22  1  0  0  0  0
 12 13  1  0  0  0  0
 12 28  1  0  0  0  0
 13 29  1  0  0  0  0
 14 30  1  0  0  0  0
 15 31  1  0  0  0  0
 16 34  1  0  0  0  0
 17 18  1  0  0  0  0
 17 36  1  0  0  0  0
 18 37  1  0  0  0  0
 19 26  1  0  0  0  0
 19 28  2  0  0  0  0
 19 29  1  0  0  0  0
 20 29  1  0  0  0  0
 20 32  2  0  0  0  0
 20 35  1  0  0  0  0
 21 30  1  0  0  0  0
 21 31  1  0  0  0  0
 21 33  2  0  0  0  0
 23 27  1  0  0  0  0
 24 27  1  0  0  0  0
 25 27  1  0  0  0  0
 26 34  1  0  0  0  0
 27 35  1  0  0  0  0
  1 38  1  0  0  0  0
  2 39  1  0  0  0  0
  3 40  1  0  0  0  0
  4 41  1  0  0  0  0
  5 42  1  0  0  0  0
  6 43  1  0  0  0  0
  7 44  1  0  0  0  0
  8 45  1  0  0  0  0
  9 46  1  0  0  0  0
 10 47  1  0  0  0  0
 22 48  1  0  0  0  0
 22 49  1  0  0  0  0
 22 50  1  0  0  0  0
 23 51  1  0  0  0  0
 23 52  1  0  0  0  0
 23 53  1  0  0  0  0
 24 54  1  0  0  0  0
 24 55  1  0  0  0  0
 24 56  1  0  0  0  0
 25 57  1  0  0  0  0
 25 58  1  0  0  0  0
 25 59  1  0  0  0  0
 26 60  1  0  0  0  0
 26 61  1  0  0  0  0
 30 62  1  0  0  0  0
 31 63  1  0  0  0  0
M  END
> <Clean Energy>
84.5744

> <SourceTag>
Livi_174a

> <Activity_FLAP>
100

> <Activity_sEH>
0.7

> <Gold.Version>
5.2

> <Gold.Id.Protein>
6HGV|6HGV_protein|mol2

> <Gold.PLP.Fitness>
94.8283

> <Gold.PLP.PLP>
-92.8827

> <Gold.PLP.part.hbond>
-8.8202

> <Gold.PLP.part.metal>
0.0000

> <Gold.PLP.part.buried>
3.6138

> <Gold.PLP.part.nonpolar>
-88.2007

> <Gold.PLP.part.repulsive>
0.0735

> <Gold.PLP.ligand.clash>
0.8626

> <Gold.PLP.ligand.torsion>
1.4260

> <Gold.PLP.Chemscore.Hbond>
1.1335

> <Gold.PLP.Chemscore.CHOScore>
0.0000

> <Gold.PLP.Chemscore.Metal>
0.0000

> <Gold.Chemscore.Hbonds>
donor molecule, donor type, donor heavy atom, donor atom, acceptor molecule, acceptor atom, score
      L1  H    30    62       P1  1931  0.43
      P1  H  1247  3847       L1    33  0.70

> <Gold.PLP.Chemscore.Internal.Correction>
0.4483

> <Gold.Protein.RotatedTorsions>
[ 3525  925  924  922 ] final -177.65 input   59.99 | X-H torsion
[ 3781 1176 1175 1172 ] final -129.26 input   60.00 | X-H torsion
[ 4531 1957 1955 1953 ] final   98.09 input   60.00 | X-H torsion
[ 3847 1247 1246 1244 ] final  -93.04 input   60.00 | X-H torsion
[ 4507 1931 1930 1928 ] final -137.80 input   60.00 | X-H torsion
[ 3677 1070 1069 1066 ] final   15.81 input   60.00 | X-H torsion

> <Gold.Protein.ActiveResidues>
 GLY266  PHE267  PRO268  GLU269  MET310  HIS334  ASP335  TRP336  GLY337  GLY338 
 MET339  LEU340  TRP342  TYR343  LEU358  ASN359  THR360  PRO361  ILE363  ALA365 
 MET369  SER370  PRO371  LEU372  GLU373  SER374  ILE375  LYS376  ALA377  ASN378 
 VAL380  PHE381  ASP382  TYR383  GLN384  PHE387  GLN388  LEU397  SER407  LEU408 
 PHE409  ARG410  LEU417  MET419  LEU428  PHE429  PHE459  TRP465  TYR466  ASN468 
 MET469  GLU470  ASN472  TRP473  ALA476  ASP496  PHE497  VAL498  LEU499  MET503 
 HIS524  TRP525 

> <Gold.Protein.RotatedAtoms>
   -2.2522  -30.2334  -29.3699 H   0  0  0  0  0  0  0  0  0  0  0  0  # atno 3525 bound_to 925 
  -12.7950  -23.0311  -30.4839 H   0  0  0  0  0  0  0  0  0  0  0  0  # atno 3677 bound_to 1070
   -9.3859  -36.3101  -33.6260 H   0  0  0  0  0  0  0  0  0  0  0  0  # atno 3781 bound_to 1176
  -15.8690  -27.4367  -37.4826 H   0  0  0  0  0  0  0  0  0  0  0  0  # atno 3847 bound_to 1247
  -13.3252  -24.2518  -40.4741 H   0  0  0  0  0  0  0  0  0  0  0  0  # atno 4507 bound_to 1931
   -2.6993  -33.9051  -36.7433 H   0  0  0  0  0  0  0  0  0  0  0  0  # atno 4531 bound_to 1957
   -2.7702  -29.8728  -30.8698 LP  0  0  0  0  0  0  0  0  0  0  0  0  # atno 5201 bound_to 925 
   -3.7253  -29.5745  -29.5792 LP  0  0  0  0  0  0  0  0  0  0  0  0  # atno 5202 bound_to 925 
   -9.9673  -37.1655  -32.3697 LP  0  0  0  0  0  0  0  0  0  0  0  0  # atno 5205 bound_to 1176
  -10.7621  -37.1615  -33.7961 LP  0  0  0  0  0  0  0  0  0  0  0  0  # atno 5206 bound_to 1176
   -2.5783  -32.2823  -36.7358 LP  0  0  0  0  0  0  0  0  0  0  0  0  # atno 5213 bound_to 1957
   -1.2552  -33.2013  -37.0032 LP  0  0  0  0  0  0  0  0  0  0  0  0  # atno 5214 bound_to 1957
  -14.3598  -27.8759  -37.9042 LP  0  0  0  0  0  0  0  0  0  0  0  0  # atno 5227 bound_to 1247
  -15.3308  -28.9291  -37.1202 LP  0  0  0  0  0  0  0  0  0  0  0  0  # atno 5228 bound_to 1247
  -12.4317  -24.1051  -39.1220 LP  0  0  0  0  0  0  0  0  0  0  0  0  # atno 5245 bound_to 1931
  -13.4360  -25.3795  -39.3062 LP  0  0  0  0  0  0  0  0  0  0  0  0  # atno 5246 bound_to 1931
  -11.6736  -23.7280  -31.4351 LP  0  0  0  0  0  0  0  0  0  0  0  0  # atno 5265 bound_to 1070
  -11.3795  -22.2743  -30.7518 LP  0  0  0  0  0  0  0  0  0  0  0  0  # atno 5266 bound_to 1070

$$$$
Livi_174a|Lisa_paper2_min|sdf|10|dock3
  -GOLD-  10202014383D 1   1.00000     0.00000

 63 66  0  0  0  0  0  0  0  0  1 V2000
   -4.4924  -30.8459  -35.6042 C   0  0  0  0  0  0  0  0  0  0  0  0
   -4.4712  -31.7543  -34.5479 C   0  0  0  0  0  0  0  0  0  0  0  0
   -5.6342  -30.0836  -35.8674 C   0  0  0  0  0  0  0  0  0  0  0  0
   -5.5865  -31.9309  -33.7213 C   0  0  0  0  0  0  0  0  0  0  0  0
  -12.8549  -27.4078  -35.8309 C   0  0  0  0  0  0  0  0  0  0  0  0
  -16.7842  -23.4317  -39.5810 C   0  0  0  0  0  0  0  0  0  0  0  0
  -12.0274  -28.1582  -34.9955 C   0  0  0  0  0  0  0  0  0  0  0  0
  -18.0880  -23.1774  -40.0065 C   0  0  0  0  0  0  0  0  0  0  0  0
  -11.4607  -25.4681  -35.4695 C   0  0  0  0  0  0  0  0  0  0  0  0
  -17.6420  -24.6791  -37.6982 C   0  0  0  0  0  0  0  0  0  0  0  0
  -10.6332  -26.2184  -34.6341 C   0  0  0  0  0  0  0  0  0  0  0  0
   -6.7641  -30.2487  -35.0467 C   0  0  0  0  0  0  0  0  0  0  0  0
   -6.7277  -31.1621  -33.9924 C   0  0  0  0  0  0  0  0  0  0  0  0
  -12.5715  -26.0628  -36.0679 C   0  0  0  0  0  0  0  0  0  0  0  0
  -16.5612  -24.1826  -38.4268 C   0  0  0  0  0  0  0  0  0  0  0  0
  -10.9167  -27.5635  -34.3970 C   0  0  0  0  0  0  0  0  0  0  0  0
  -19.1688  -23.6739  -39.2778 C   0  0  0  0  0  0  0  0  0  0  0  0
  -18.9458  -24.4248  -38.1236 C   0  0  0  0  0  0  0  0  0  0  0  0
   -8.6784  -30.1294  -34.1254 C   0  0  0  0  0  0  0  0  0  0  0  0
   -8.4470  -31.7951  -32.2937 C   0  0  0  0  0  0  0  0  0  0  0  0
  -14.8078  -25.3739  -37.0391 C   0  0  0  0  0  0  0  0  0  0  0  0
   -9.4484  -25.5658  -34.0018 C   0  0  0  0  0  0  0  0  0  0  0  0
   -6.2882  -33.7450  -30.0792 C   0  0  0  0  0  0  0  0  0  0  0  0
   -7.4813  -31.5655  -29.7111 C   0  0  0  0  0  0  0  0  0  0  0  0
   -8.8032  -33.6607  -30.1247 C   0  0  0  0  0  0  0  0  0  0  0  0
  -10.0716  -29.7156  -33.8399 C   0  0  0  0  0  0  0  0  0  0  0  0
   -7.5128  -32.9063  -30.4417 C   0  0  0  0  0  0  0  0  0  0  0  0
   -7.9787  -29.6210  -35.1119 N   0  0  0  0  0  0  0  0  0  0  0  0
   -7.9817  -31.0746  -33.3994 N   0  0  0  0  0  0  0  0  0  0  0  0
  -13.3993  -25.3125  -36.9037 N   0  0  0  0  0  0  0  0  0  0  0  0
  -15.2385  -24.4408  -37.9959 N   0  0  0  0  0  0  0  0  0  0  0  0
   -9.5750  -31.6330  -31.8583 O   0  0  0  0  0  0  0  0  0  0  0  0
  -15.5376  -26.1331  -36.4098 O   0  0  0  0  0  0  0  0  0  0  0  0
  -10.1154  -28.3143  -33.5803 O   0  0  0  0  0  0  0  0  0  0  0  0
   -7.4780  -32.6329  -31.8456 O   0  0  0  0  0  0  0  0  0  0  0  0
  -20.7600  -23.3223  -39.8546 Cl  0  0  0  0  0  0  0  0  0  0  0  0
  -20.2433  -25.0651  -37.1773 Cl  0  0  0  0  0  0  0  0  0  0  0  0
   -3.6128  -30.7279  -36.2311 H   0  0  0  0  0  0  0  0  0  0  0  0
   -3.5727  -32.3373  -34.3616 H   0  0  0  0  0  0  0  0  0  0  0  0
   -5.6436  -29.3780  -36.6925 H   0  0  0  0  0  0  0  0  0  0  0  0
   -5.5444  -32.6439  -32.9065 H   0  0  0  0  0  0  0  0  0  0  0  0
  -13.7178  -27.8817  -36.2918 H   0  0  0  0  0  0  0  0  0  0  0  0
  -15.9492  -23.0414  -40.1570 H   0  0  0  0  0  0  0  0  0  0  0  0
  -12.2538  -29.2056  -34.8151 H   0  0  0  0  0  0  0  0  0  0  0  0
  -18.2432  -22.5916  -40.9091 H   0  0  0  0  0  0  0  0  0  0  0  0
  -11.2383  -24.4192  -35.6535 H   0  0  0  0  0  0  0  0  0  0  0  0
  -17.4616  -25.2632  -36.7978 H   0  0  0  0  0  0  0  0  0  0  0  0
   -9.7239  -25.1354  -33.0319 H   0  0  0  0  0  0  0  0  0  0  0  0
   -8.6350  -26.2854  -33.8463 H   0  0  0  0  0  0  0  0  0  0  0  0
   -9.0494  -24.7660  -34.6383 H   0  0  0  0  0  0  0  0  0  0  0  0
   -6.3071  -34.7082  -30.6016 H   0  0  0  0  0  0  0  0  0  0  0  0
   -5.3564  -33.2296  -30.3339 H   0  0  0  0  0  0  0  0  0  0  0  0
   -6.2749  -33.9749  -29.0076 H   0  0  0  0  0  0  0  0  0  0  0  0
   -8.3582  -30.9604  -29.9682 H   0  0  0  0  0  0  0  0  0  0  0  0
   -6.6040  -30.9797  -30.0082 H   0  0  0  0  0  0  0  0  0  0  0  0
   -7.4580  -31.6980  -28.6245 H   0  0  0  0  0  0  0  0  0  0  0  0
   -9.6818  -33.0592  -30.3847 H   0  0  0  0  0  0  0  0  0  0  0  0
   -8.8601  -34.6089  -30.6692 H   0  0  0  0  0  0  0  0  0  0  0  0
   -8.8785  -33.8703  -29.0516 H   0  0  0  0  0  0  0  0  0  0  0  0
  -10.7455  -29.9295  -34.6857 H   0  0  0  0  0  0  0  0  0  0  0  0
  -10.4812  -30.2427  -32.9627 H   0  0  0  0  0  0  0  0  0  0  0  0
  -12.9250  -24.6253  -37.4990 H   0  0  0  0  0  0  0  0  0  0  0  0
  -14.5157  -23.8784  -38.4378 H   0  0  0  0  0  0  0  0  0  0  0  0
  1  2  2  0  0  0  0
  1  3  1  0  0  0  0
  2  4  1  0  0  0  0
  3 12  2  0  0  0  0
  4 13  2  0  0  0  0
  5  7  2  0  0  0  0
  5 14  1  0  0  0  0
  6  8  1  0  0  0  0
  6 15  2  0  0  0  0
  7 16  1  0  0  0  0
  8 17  2  0  0  0  0
  9 11  1  0  0  0  0
  9 14  2  0  0  0  0
 10 15  1  0  0  0  0
 10 18  2  0  0  0  0
 11 16  2  0  0  0  0
 11 22  1  0  0  0  0
 12 13  1  0  0  0  0
 12 28  1  0  0  0  0
 13 29  1  0  0  0  0
 14 30  1  0  0  0  0
 15 31  1  0  0  0  0
 16 34  1  0  0  0  0
 17 18  1  0  0  0  0
 17 36  1  0  0  0  0
 18 37  1  0  0  0  0
 19 26  1  0  0  0  0
 19 28  2  0  0  0  0
 19 29  1  0  0  0  0
 20 29  1  0  0  0  0
 20 32  2  0  0  0  0
 20 35  1  0  0  0  0
 21 30  1  0  0  0  0
 21 31  1  0  0  0  0
 21 33  2  0  0  0  0
 23 27  1  0  0  0  0
 24 27  1  0  0  0  0
 25 27  1  0  0  0  0
 26 34  1  0  0  0  0
 27 35  1  0  0  0  0
  1 38  1  0  0  0  0
  2 39  1  0  0  0  0
  3 40  1  0  0  0  0
  4 41  1  0  0  0  0
  5 42  1  0  0  0  0
  6 43  1  0  0  0  0
  7 44  1  0  0  0  0
  8 45  1  0  0  0  0
  9 46  1  0  0  0  0
 10 47  1  0  0  0  0
 22 48  1  0  0  0  0
 22 49  1  0  0  0  0
 22 50  1  0  0  0  0
 23 51  1  0  0  0  0
 23 52  1  0  0  0  0
 23 53  1  0  0  0  0
 24 54  1  0  0  0  0
 24 55  1  0  0  0  0
 24 56  1  0  0  0  0
 25 57  1  0  0  0  0
 25 58  1  0  0  0  0
 25 59  1  0  0  0  0
 26 60  1  0  0  0  0
 26 61  1  0  0  0  0
 30 62  1  0  0  0  0
 31 63  1  0  0  0  0
M  END
> <Clean Energy>
84.5744

> <SourceTag>
Livi_174a

> <Activity_FLAP>
100

> <Activity_sEH>
0.7

> <Gold.Version>
5.2

> <Gold.Id.Protein>
6HGV|6HGV_protein|mol2

> <Gold.PLP.Fitness>
94.6517

> <Gold.PLP.PLP>
-92.0633

> <Gold.PLP.part.hbond>
-7.9351

> <Gold.PLP.part.metal>
0.0000

> <Gold.PLP.part.buried>
3.5860

> <Gold.PLP.part.nonpolar>
-87.5526

> <Gold.PLP.part.repulsive>
0.0707

> <Gold.PLP.ligand.clash>
0.0000

> <Gold.PLP.ligand.torsion>
1.4566

> <Gold.PLP.Chemscore.Hbond>
1.0769

> <Gold.PLP.Chemscore.CHOScore>
0.0000

> <Gold.PLP.Chemscore.Metal>
0.0000

> <Gold.Chemscore.Hbonds>
donor molecule, donor type, donor heavy atom, donor atom, acceptor molecule, acceptor atom, score
      L1  H    30    62       P1  1931  0.53
      P1  H  1247  3847       L1    33  0.55

> <Gold.PLP.Chemscore.Internal.Correction>
0.4483

> <Gold.Protein.RotatedTorsions>
[ 3525  925  924  922 ] final  -43.36 input   59.99 | X-H torsion
[ 3781 1176 1175 1172 ] final   94.58 input   60.00 | X-H torsion
[ 4531 1957 1955 1953 ] final  127.14 input   60.00 | X-H torsion
[ 3847 1247 1246 1244 ] final  -77.09 input   60.00 | X-H torsion
[ 4507 1931 1930 1928 ] final -144.35 input   60.00 | X-H torsion
[ 3677 1070 1069 1066 ] final   62.21 input   60.00 | X-H torsion

> <Gold.Protein.ActiveResidues>
 GLY266  PHE267  PRO268  GLU269  MET310  HIS334  ASP335  TRP336  GLY337  GLY338 
 MET339  LEU340  TRP342  TYR343  LEU358  ASN359  THR360  PRO361  ILE363  ALA365 
 MET369  SER370  PRO371  LEU372  GLU373  SER374  ILE375  LYS376  ALA377  ASN378 
 VAL380  PHE381  ASP382  TYR383  GLN384  PHE387  GLN388  LEU397  SER407  LEU408 
 PHE409  ARG410  LEU417  MET419  LEU428  PHE429  PHE459  TRP465  TYR466  ASN468 
 MET469  GLU470  ASN472  TRP473  ALA476  ASP496  PHE497  VAL498  LEU499  MET503 
 HIS524  TRP525 

> <Gold.Protein.RotatedAtoms>
   -3.7676  -29.5329  -29.8054 H   0  0  0  0  0  0  0  0  0  0  0  0  # atno 3525 bound_to 925 
  -12.4108  -22.4215  -30.3257 H   0  0  0  0  0  0  0  0  0  0  0  0  # atno 3677 bound_to 1070
  -10.1893  -37.2908  -32.4386 H   0  0  0  0  0  0  0  0  0  0  0  0  # atno 3781 bound_to 1176
  -15.9957  -27.6274  -37.3599 H   0  0  0  0  0  0  0  0  0  0  0  0  # atno 3847 bound_to 1247
  -13.2577  -24.1705  -40.4566 H   0  0  0  0  0  0  0  0  0  0  0  0  # atno 4507 bound_to 1931
   -2.2656  -34.0636  -36.8285 H   0  0  0  0  0  0  0  0  0  0  0  0  # atno 4531 bound_to 1957
   -2.4052  -30.1848  -29.1998 LP  0  0  0  0  0  0  0  0  0  0  0  0  # atno 5201 bound_to 925 
   -2.5642  -29.9681  -30.8106 LP  0  0  0  0  0  0  0  0  0  0  0  0  # atno 5202 bound_to 925 
  -10.6396  -37.0119  -33.9772 LP  0  0  0  0  0  0  0  0  0  0  0  0  # atno 5205 bound_to 1176
   -9.2807  -36.3274  -33.3843 LP  0  0  0  0  0  0  0  0  0  0  0  0  # atno 5206 bound_to 1176
   -2.9337  -32.5879  -36.6735 LP  0  0  0  0  0  0  0  0  0  0  0  0  # atno 5213 bound_to 1957
   -1.3365  -32.7361  -36.9797 LP  0  0  0  0  0  0  0  0  0  0  0  0  # atno 5214 bound_to 1957
  -14.4777  -27.6461  -37.9458 LP  0  0  0  0  0  0  0  0  0  0  0  0  # atno 5227 bound_to 1247
  -15.0852  -28.9669  -37.2021 LP  0  0  0  0  0  0  0  0  0  0  0  0  # atno 5228 bound_to 1247
  -12.4429  -24.1828  -39.0481 LP  0  0  0  0  0  0  0  0  0  0  0  0  # atno 5245 bound_to 1931
  -13.4927  -25.3837  -39.3978 LP  0  0  0  0  0  0  0  0  0  0  0  0  # atno 5246 bound_to 1931
  -12.3547  -23.8214  -31.1535 LP  0  0  0  0  0  0  0  0  0  0  0  0  # atno 5265 bound_to 1070
  -11.0854  -22.7948  -31.1929 LP  0  0  0  0  0  0  0  0  0  0  0  0  # atno 5266 bound_to 1070

$$$$
Livi_174a|Lisa_paper2_min|sdf|10|dock6
  -GOLD-  10202014403D 1   1.00000     0.00000

 63 66  0  0  0  0  0  0  0  0  1 V2000
   -4.5001  -31.2064  -35.4153 C   0  0  0  0  0  0  0  0  0  0  0  0
   -4.5995  -32.0473  -34.3088 C   0  0  0  0  0  0  0  0  0  0  0  0
   -5.5705  -30.3886  -35.7888 C   0  0  0  0  0  0  0  0  0  0  0  0
   -5.7678  -32.0990  -33.5403 C   0  0  0  0  0  0  0  0  0  0  0  0
  -12.7578  -27.2203  -36.0493 C   0  0  0  0  0  0  0  0  0  0  0  0
  -16.6872  -23.2117  -39.7236 C   0  0  0  0  0  0  0  0  0  0  0  0
  -11.9274  -28.0010  -35.2452 C   0  0  0  0  0  0  0  0  0  0  0  0
  -17.9838  -22.9845  -40.1849 C   0  0  0  0  0  0  0  0  0  0  0  0
  -11.4077  -25.2780  -35.5575 C   0  0  0  0  0  0  0  0  0  0  0  0
  -17.5687  -24.5055  -37.8834 C   0  0  0  0  0  0  0  0  0  0  0  0
  -10.5773  -26.0587  -34.7534 C   0  0  0  0  0  0  0  0  0  0  0  0
   -6.7523  -30.4283  -35.0277 C   0  0  0  0  0  0  0  0  0  0  0  0
   -6.8367  -31.2753  -33.9220 C   0  0  0  0  0  0  0  0  0  0  0  0
  -12.4979  -25.8587  -36.2055 C   0  0  0  0  0  0  0  0  0  0  0  0
  -16.4797  -23.9723  -38.5728 C   0  0  0  0  0  0  0  0  0  0  0  0
  -10.8373  -27.4202  -34.5973 C   0  0  0  0  0  0  0  0  0  0  0  0
  -19.0729  -23.5177  -39.4955 C   0  0  0  0  0  0  0  0  0  0  0  0
  -18.8653  -24.2782  -38.3447 C   0  0  0  0  0  0  0  0  0  0  0  0
   -8.7013  -30.1271  -34.2289 C   0  0  0  0  0  0  0  0  0  0  0  0
   -8.6859  -31.6881  -32.2934 C   0  0  0  0  0  0  0  0  0  0  0  0
  -14.7251  -25.1958  -37.2150 C   0  0  0  0  0  0  0  0  0  0  0  0
   -9.4148  -25.4205  -34.0673 C   0  0  0  0  0  0  0  0  0  0  0  0
   -7.8473  -31.3750  -29.6509 C   0  0  0  0  0  0  0  0  0  0  0  0
   -9.2949  -33.3842  -30.0718 C   0  0  0  0  0  0  0  0  0  0  0  0
   -6.8081  -33.6585  -29.8510 C   0  0  0  0  0  0  0  0  0  0  0  0
  -10.0762  -29.6060  -34.0502 C   0  0  0  0  0  0  0  0  0  0  0  0
   -7.9333  -32.7418  -30.3286 C   0  0  0  0  0  0  0  0  0  0  0  0
   -7.9153  -29.7275  -35.2003 N   0  0  0  0  0  0  0  0  0  0  0  0
   -8.1122  -31.0693  -33.4098 N   0  0  0  0  0  0  0  0  0  0  0  0
  -13.3287  -25.0781  -37.0099 N   0  0  0  0  0  0  0  0  0  0  0  0
  -15.1642  -24.2031  -38.1056 N   0  0  0  0  0  0  0  0  0  0  0  0
   -9.8222  -31.4259  -31.9352 O   0  0  0  0  0  0  0  0  0  0  0  0
  -15.4394  -26.0430  -36.6885 O   0  0  0  0  0  0  0  0  0  0  0  0
  -10.0327  -28.2009  -33.8123 O   0  0  0  0  0  0  0  0  0  0  0  0
   -7.8030  -32.5584  -31.7414 O   0  0  0  0  0  0  0  0  0  0  0  0
  -20.6546  -23.1982  -40.1155 Cl  0  0  0  0  0  0  0  0  0  0  0  0
  -20.1738  -24.9635  -37.4462 Cl  0  0  0  0  0  0  0  0  0  0  0  0
   -3.5815  -31.1853  -35.9952 H   0  0  0  0  0  0  0  0  0  0  0  0
   -3.7548  -32.6754  -34.0366 H   0  0  0  0  0  0  0  0  0  0  0  0
   -5.4861  -29.7361  -36.6524 H   0  0  0  0  0  0  0  0  0  0  0  0
   -5.8196  -32.7617  -32.6845 H   0  0  0  0  0  0  0  0  0  0  0  0
  -13.6045  -27.6836  -36.5494 H   0  0  0  0  0  0  0  0  0  0  0  0
  -15.8456  -22.7929  -40.2691 H   0  0  0  0  0  0  0  0  0  0  0  0
  -12.1354  -29.0611  -35.1279 H   0  0  0  0  0  0  0  0  0  0  0  0
  -18.1268  -22.3906  -41.0843 H   0  0  0  0  0  0  0  0  0  0  0  0
  -11.2038  -24.2162  -35.6784 H   0  0  0  0  0  0  0  0  0  0  0  0
  -17.4005  -25.0969  -36.9856 H   0  0  0  0  0  0  0  0  0  0  0  0
   -9.7125  -25.0514  -33.0789 H   0  0  0  0  0  0  0  0  0  0  0  0
   -8.5895  -26.1322  -33.9404 H   0  0  0  0  0  0  0  0  0  0  0  0
   -9.0229  -24.5784  -34.6514 H   0  0  0  0  0  0  0  0  0  0  0  0
   -6.8716  -30.9106  -29.8328 H   0  0  0  0  0  0  0  0  0  0  0  0
   -8.6278  -30.6966  -30.0105 H   0  0  0  0  0  0  0  0  0  0  0  0
   -7.9461  -31.4708  -28.5635 H   0  0  0  0  0  0  0  0  0  0  0  0
   -9.3610  -34.3651  -30.5562 H   0  0  0  0  0  0  0  0  0  0  0  0
  -10.1004  -32.7749  -30.4972 H   0  0  0  0  0  0  0  0  0  0  0  0
   -9.4856  -33.5126  -29.0013 H   0  0  0  0  0  0  0  0  0  0  0  0
   -6.8695  -34.6390  -30.3370 H   0  0  0  0  0  0  0  0  0  0  0  0
   -5.8225  -33.2301  -30.0606 H   0  0  0  0  0  0  0  0  0  0  0  0
   -6.8859  -33.8422  -28.7733 H   0  0  0  0  0  0  0  0  0  0  0  0
  -10.7024  -29.7846  -34.9397 H   0  0  0  0  0  0  0  0  0  0  0  0
  -10.5857  -30.0853  -33.1982 H   0  0  0  0  0  0  0  0  0  0  0  0
  -12.8669  -24.3181  -37.5205 H   0  0  0  0  0  0  0  0  0  0  0  0
  -14.4544  -23.5688  -38.4630 H   0  0  0  0  0  0  0  0  0  0  0  0
  1  2  2  0  0  0  0
  1  3  1  0  0  0  0
  2  4  1  0  0  0  0
  3 12  2  0  0  0  0
  4 13  2  0  0  0  0
  5  7  2  0  0  0  0
  5 14  1  0  0  0  0
  6  8  1  0  0  0  0
  6 15  2  0  0  0  0
  7 16  1  0  0  0  0
  8 17  2  0  0  0  0
  9 11  1  0  0  0  0
  9 14  2  0  0  0  0
 10 15  1  0  0  0  0
 10 18  2  0  0  0  0
 11 16  2  0  0  0  0
 11 22  1  0  0  0  0
 12 13  1  0  0  0  0
 12 28  1  0  0  0  0
 13 29  1  0  0  0  0
 14 30  1  0  0  0  0
 15 31  1  0  0  0  0
 16 34  1  0  0  0  0
 17 18  1  0  0  0  0
 17 36  1  0  0  0  0
 18 37  1  0  0  0  0
 19 26  1  0  0  0  0
 19 28  2  0  0  0  0
 19 29  1  0  0  0  0
 20 29  1  0  0  0  0
 20 32  2  0  0  0  0
 20 35  1  0  0  0  0
 21 30  1  0  0  0  0
 21 31  1  0  0  0  0
 21 33  2  0  0  0  0
 23 27  1  0  0  0  0
 24 27  1  0  0  0  0
 25 27  1  0  0  0  0
 26 34  1  0  0  0  0
 27 35  1  0  0  0  0
  1 38  1  0  0  0  0
  2 39  1  0  0  0  0
  3 40  1  0  0  0  0
  4 41  1  0  0  0  0
  5 42  1  0  0  0  0
  6 43  1  0  0  0  0
  7 44  1  0  0  0  0
  8 45  1  0  0  0  0
  9 46  1  0  0  0  0
 10 47  1  0  0  0  0
 22 48  1  0  0  0  0
 22 49  1  0  0  0  0
 22 50  1  0  0  0  0
 23 51  1  0  0  0  0
 23 52  1  0  0  0  0
 23 53  1  0  0  0  0
 24 54  1  0  0  0  0
 24 55  1  0  0  0  0
 24 56  1  0  0  0  0
 25 57  1  0  0  0  0
 25 58  1  0  0  0  0
 25 59  1  0  0  0  0
 26 60  1  0  0  0  0
 26 61  1  0  0  0  0
 30 62  1  0  0  0  0
 31 63  1  0  0  0  0
M  END
> <Clean Energy>
84.5744

> <SourceTag>
Livi_174a

> <Activity_FLAP>
100

> <Activity_sEH>
0.7

> <Gold.Version>
5.2

> <Gold.Id.Protein>
6HGV|6HGV_protein|mol2

> <Gold.PLP.Fitness>
94.0156

> <Gold.PLP.PLP>
-91.9272

> <Gold.PLP.part.hbond>
-7.9041

> <Gold.PLP.part.metal>
0.0000

> <Gold.PLP.part.buried>
3.8905

> <Gold.PLP.part.nonpolar>
-87.5550

> <Gold.PLP.part.repulsive>
0.0706

> <Gold.PLP.ligand.clash>
0.8698

> <Gold.PLP.ligand.torsion>
1.3498

> <Gold.PLP.Chemscore.Hbond>
1.1591

> <Gold.PLP.Chemscore.CHOScore>
0.0000

> <Gold.PLP.Chemscore.Metal>
0.0000

> <Gold.Chemscore.Hbonds>
donor molecule, donor type, donor heavy atom, donor atom, acceptor molecule, acceptor atom, score
      L1  H    30    62       P1  1931  0.40
      P1  H  1247  3847       L1    33  0.76

> <Gold.PLP.Chemscore.Internal.Correction>
0.4365

> <Gold.Protein.RotatedTorsions>
[ 3525  925  924  922 ] final   11.61 input   59.99 | X-H torsion
[ 3781 1176 1175 1172 ] final   59.20 input   60.00 | X-H torsion
[ 4531 1957 1955 1953 ] final  -98.56 input   60.00 | X-H torsion
[ 3847 1247 1246 1244 ] final  -96.84 input   60.00 | X-H torsion
[ 4507 1931 1930 1928 ] final -118.31 input   60.00 | X-H torsion
[ 3677 1070 1069 1066 ] final   82.91 input   60.00 | X-H torsion

> <Gold.Protein.ActiveResidues>
 GLY266  PHE267  PRO268  GLU269  MET310  HIS334  ASP335  TRP336  GLY337  GLY338 
 MET339  LEU340  TRP342  TYR343  LEU358  ASN359  THR360  PRO361  ILE363  ALA365 
 MET369  SER370  PRO371  LEU372  GLU373  SER374  ILE375  LYS376  ALA377  ASN378 
 VAL380  PHE381  ASP382  TYR383  GLN384  PHE387  GLN388  LEU397  SER407  LEU408 
 PHE409  ARG410  LEU417  MET419  LEU428  PHE429  PHE459  TRP465  TYR466  ASN468 
 MET469  GLU470  ASN472  TRP473  ALA476  ASP496  PHE497  VAL498  LEU499  MET503 
 HIS524  TRP525 

> <Gold.Protein.RotatedAtoms>
   -3.4785  -29.5846  -30.6182 H   0  0  0  0  0  0  0  0  0  0  0  0  # atno 3525 bound_to 925 
  -12.1239  -22.2516  -30.3699 H   0  0  0  0  0  0  0  0  0  0  0  0  # atno 3677 bound_to 1070
  -10.6121  -37.4420  -32.7881 H   0  0  0  0  0  0  0  0  0  0  0  0  # atno 3781 bound_to 1176
  -15.8306  -27.3981  -37.5124 H   0  0  0  0  0  0  0  0  0  0  0  0  # atno 3847 bound_to 1247
  -13.5023  -24.5143  -40.4614 H   0  0  0  0  0  0  0  0  0  0  0  0  # atno 4507 bound_to 1931
   -1.4633  -32.5410  -36.9547 H   0  0  0  0  0  0  0  0  0  0  0  0  # atno 4531 bound_to 1957
   -3.1944  -29.8554  -29.0389 LP  0  0  0  0  0  0  0  0  0  0  0  0  # atno 5201 bound_to 925 
   -2.0661  -30.2454  -30.1530 LP  0  0  0  0  0  0  0  0  0  0  0  0  # atno 5202 bound_to 925 
  -10.2239  -36.6646  -34.1640 LP  0  0  0  0  0  0  0  0  0  0  0  0  # atno 5205 bound_to 1176
   -9.2707  -36.5225  -32.8456 LP  0  0  0  0  0  0  0  0  0  0  0  0  # atno 5206 bound_to 1176
   -2.0353  -34.0622  -36.8698 LP  0  0  0  0  0  0  0  0  0  0  0  0  # atno 5213 bound_to 1957
   -3.0428  -32.7949  -36.6564 LP  0  0  0  0  0  0  0  0  0  0  0  0  # atno 5214 bound_to 1957
  -14.3409  -27.9336  -37.8895 LP  0  0  0  0  0  0  0  0  0  0  0  0  # atno 5227 bound_to 1247
  -15.3884  -28.9102  -37.1048 LP  0  0  0  0  0  0  0  0  0  0  0  0  # atno 5228 bound_to 1247
  -12.4474  -23.9143  -39.3774 LP  0  0  0  0  0  0  0  0  0  0  0  0  # atno 5245 bound_to 1931
  -13.2420  -25.3060  -39.0637 LP  0  0  0  0  0  0  0  0  0  0  0  0  # atno 5246 bound_to 1931
  -12.6000  -23.6918  -30.9591 LP  0  0  0  0  0  0  0  0  0  0  0  0  # atno 5265 bound_to 1070
  -11.1290  -23.0954  -31.3426 LP  0  0  0  0  0  0  0  0  0  0  0  0  # atno 5266 bound_to 1070

$$$$
Livi_174a|Lisa_paper2_min|sdf|10|dock8
  -GOLD-  10202014413D 1   1.00000     0.00000

 63 66  0  0  0  0  0  0  0  0  1 V2000
   -4.4252  -31.2375  -35.3313 C   0  0  0  0  0  0  0  0  0  0  0  0
   -4.5450  -32.0612  -34.2139 C   0  0  0  0  0  0  0  0  0  0  0  0
   -5.4995  -30.4509  -35.7569 C   0  0  0  0  0  0  0  0  0  0  0  0
   -5.7384  -32.1264  -33.4861 C   0  0  0  0  0  0  0  0  0  0  0  0
  -12.8856  -27.2932  -35.9770 C   0  0  0  0  0  0  0  0  0  0  0  0
  -16.7998  -23.2615  -39.6200 C   0  0  0  0  0  0  0  0  0  0  0  0
  -12.0450  -28.0927  -35.2025 C   0  0  0  0  0  0  0  0  0  0  0  0
  -18.1017  -23.0255  -40.0615 C   0  0  0  0  0  0  0  0  0  0  0  0
  -11.4128  -25.4096  -35.6309 C   0  0  0  0  0  0  0  0  0  0  0  0
  -17.6627  -24.5293  -37.7532 C   0  0  0  0  0  0  0  0  0  0  0  0
  -10.5721  -26.2091  -34.8564 C   0  0  0  0  0  0  0  0  0  0  0  0
   -6.7064  -30.5045  -35.0371 C   0  0  0  0  0  0  0  0  0  0  0  0
   -6.8112  -31.3341  -33.9200 C   0  0  0  0  0  0  0  0  0  0  0  0
  -12.5695  -25.9516  -36.1912 C   0  0  0  0  0  0  0  0  0  0  0  0
  -16.5803  -24.0135  -38.4658 C   0  0  0  0  0  0  0  0  0  0  0  0
  -10.8884  -27.5507  -34.6422 C   0  0  0  0  0  0  0  0  0  0  0  0
  -19.1841  -23.5412  -39.3488 C   0  0  0  0  0  0  0  0  0  0  0  0
  -18.9646  -24.2932  -38.1945 C   0  0  0  0  0  0  0  0  0  0  0  0
   -8.6889  -30.2342  -34.3129 C   0  0  0  0  0  0  0  0  0  0  0  0
   -8.7074  -31.7609  -32.3502 C   0  0  0  0  0  0  0  0  0  0  0  0
  -14.8087  -25.2679  -37.1593 C   0  0  0  0  0  0  0  0  0  0  0  0
   -9.3381  -25.6125  -34.2644 C   0  0  0  0  0  0  0  0  0  0  0  0
   -7.9890  -31.3817  -29.6881 C   0  0  0  0  0  0  0  0  0  0  0  0
   -9.3487  -33.4487  -30.1219 C   0  0  0  0  0  0  0  0  0  0  0  0
   -6.8638  -33.6299  -29.8050 C   0  0  0  0  0  0  0  0  0  0  0  0
  -10.0805  -29.7417  -34.1920 C   0  0  0  0  0  0  0  0  0  0  0  0
   -8.0019  -32.7629  -30.3414 C   0  0  0  0  0  0  0  0  0  0  0  0
   -7.8779  -29.8337  -35.2632 N   0  0  0  0  0  0  0  0  0  0  0  0
   -8.1084  -31.1485  -33.4567 N   0  0  0  0  0  0  0  0  0  0  0  0
  -13.4104  -25.1521  -36.9659 N   0  0  0  0  0  0  0  0  0  0  0  0
  -15.2595  -24.2532  -38.0187 N   0  0  0  0  0  0  0  0  0  0  0  0
   -9.8613  -31.5186  -32.0369 O   0  0  0  0  0  0  0  0  0  0  0  0
  -15.5155  -26.1305  -36.6478 O   0  0  0  0  0  0  0  0  0  0  0  0
  -10.0748  -28.3494  -33.8852 O   0  0  0  0  0  0  0  0  0  0  0  0
   -7.8255  -32.6010  -31.7518 O   0  0  0  0  0  0  0  0  0  0  0  0
  -20.7729  -23.2116  -39.9449 Cl  0  0  0  0  0  0  0  0  0  0  0  0
  -20.2644  -24.9568  -37.2676 Cl  0  0  0  0  0  0  0  0  0  0  0  0
   -3.4872  -31.2053  -35.8789 H   0  0  0  0  0  0  0  0  0  0  0  0
   -3.6968  -32.6650  -33.9009 H   0  0  0  0  0  0  0  0  0  0  0  0
   -5.3990  -29.8118  -36.6287 H   0  0  0  0  0  0  0  0  0  0  0  0
   -5.8059  -32.7751  -32.6209 H   0  0  0  0  0  0  0  0  0  0  0  0
  -13.7844  -27.7263  -36.4086 H   0  0  0  0  0  0  0  0  0  0  0  0
  -15.9634  -22.8562  -40.1837 H   0  0  0  0  0  0  0  0  0  0  0  0
  -12.2971  -29.1371  -35.0397 H   0  0  0  0  0  0  0  0  0  0  0  0
  -18.2541  -22.4386  -40.9639 H   0  0  0  0  0  0  0  0  0  0  0  0
  -11.1648  -24.3635  -35.7971 H   0  0  0  0  0  0  0  0  0  0  0  0
  -17.4851  -25.1140  -36.8528 H   0  0  0  0  0  0  0  0  0  0  0  0
   -9.5534  -25.2013  -33.2712 H   0  0  0  0  0  0  0  0  0  0  0  0
   -8.5425  -26.3616  -34.1673 H   0  0  0  0  0  0  0  0  0  0  0  0
   -8.9433  -24.8081  -34.8976 H   0  0  0  0  0  0  0  0  0  0  0  0
   -7.0241  -30.8862  -29.8433 H   0  0  0  0  0  0  0  0  0  0  0  0
   -8.7789  -30.7383  -30.0893 H   0  0  0  0  0  0  0  0  0  0  0  0
   -8.1248  -31.4609  -28.6033 H   0  0  0  0  0  0  0  0  0  0  0  0
   -9.3624  -34.4401  -30.5889 H   0  0  0  0  0  0  0  0  0  0  0  0
  -10.1587  -32.8765  -30.5884 H   0  0  0  0  0  0  0  0  0  0  0  0
   -9.5745  -33.5641  -29.0568 H   0  0  0  0  0  0  0  0  0  0  0  0
   -6.8727  -34.6208  -30.2735 H   0  0  0  0  0  0  0  0  0  0  0  0
   -5.8867  -33.1705  -29.9869 H   0  0  0  0  0  0  0  0  0  0  0  0
   -6.9751  -33.7964  -28.7275 H   0  0  0  0  0  0  0  0  0  0  0  0
  -10.6500  -29.8857  -35.1249 H   0  0  0  0  0  0  0  0  0  0  0  0
  -10.6312  -30.2690  -33.3959 H   0  0  0  0  0  0  0  0  0  0  0  0
  -12.9558  -24.3778  -37.4612 H   0  0  0  0  0  0  0  0  0  0  0  0
  -14.5548  -23.6079  -38.3668 H   0  0  0  0  0  0  0  0  0  0  0  0
  1  2  2  0  0  0  0
  1  3  1  0  0  0  0
  2  4  1  0  0  0  0
  3 12  2  0  0  0  0
  4 13  2  0  0  0  0
  5  7  2  0  0  0  0
  5 14  1  0  0  0  0
  6  8  1  0  0  0  0
  6 15  2  0  0  0  0
  7 16  1  0  0  0  0
  8 17  2  0  0  0  0
  9 11  1  0  0  0  0
  9 14  2  0  0  0  0
 10 15  1  0  0  0  0
 10 18  2  0  0  0  0
 11 16  2  0  0  0  0
 11 22  1  0  0  0  0
 12 13  1  0  0  0  0
 12 28  1  0  0  0  0
 13 29  1  0  0  0  0
 14 30  1  0  0  0  0
 15 31  1  0  0  0  0
 16 34  1  0  0  0  0
 17 18  1  0  0  0  0
 17 36  1  0  0  0  0
 18 37  1  0  0  0  0
 19 26  1  0  0  0  0
 19 28  2  0  0  0  0
 19 29  1  0  0  0  0
 20 29  1  0  0  0  0
 20 32  2  0  0  0  0
 20 35  1  0  0  0  0
 21 30  1  0  0  0  0
 21 31  1  0  0  0  0
 21 33  2  0  0  0  0
 23 27  1  0  0  0  0
 24 27  1  0  0  0  0
 25 27  1  0  0  0  0
 26 34  1  0  0  0  0
 27 35  1  0  0  0  0
  1 38  1  0  0  0  0
  2 39  1  0  0  0  0
  3 40  1  0  0  0  0
  4 41  1  0  0  0  0
  5 42  1  0  0  0  0
  6 43  1  0  0  0  0
  7 44  1  0  0  0  0
  8 45  1  0  0  0  0
  9 46  1  0  0  0  0
 10 47  1  0  0  0  0
 22 48  1  0  0  0  0
 22 49  1  0  0  0  0
 22 50  1  0  0  0  0
 23 51  1  0  0  0  0
 23 52  1  0  0  0  0
 23 53  1  0  0  0  0
 24 54  1  0  0  0  0
 24 55  1  0  0  0  0
 24 56  1  0  0  0  0
 25 57  1  0  0  0  0
 25 58  1  0  0  0  0
 25 59  1  0  0  0  0
 26 60  1  0  0  0  0
 26 61  1  0  0  0  0
 30 62  1  0  0  0  0
 31 63  1  0  0  0  0
M  END
> <Clean Energy>
84.5744

> <SourceTag>
Livi_174a

> <Activity_FLAP>
100

> <Activity_sEH>
0.7

> <Gold.Version>
5.2

> <Gold.Id.Protein>
6HGV|6HGV_protein|mol2

> <Gold.PLP.Fitness>
92.2473

> <Gold.PLP.PLP>
-89.7900

> <Gold.PLP.part.hbond>
-7.4421

> <Gold.PLP.part.metal>
0.0000

> <Gold.PLP.part.buried>
3.8394

> <Gold.PLP.part.nonpolar>
-85.9095

> <Gold.PLP.part.repulsive>
0.0670

> <Gold.PLP.ligand.clash>
0.0000

> <Gold.PLP.ligand.torsion>
1.4094

> <Gold.PLP.Chemscore.Hbond>
1.0377

> <Gold.PLP.Chemscore.CHOScore>
0.0000

> <Gold.PLP.Chemscore.Metal>
0.0000

> <Gold.Chemscore.Hbonds>
donor molecule, donor type, donor heavy atom, donor atom, acceptor molecule, acceptor atom, score
      L1  H    30    62       P1  1931  0.36
      P1  H  1247  3847       L1    33  0.67

> <Gold.PLP.Chemscore.Internal.Correction>
0.4008

> <Gold.Protein.RotatedTorsions>
[ 3525  925  924  922 ] final -149.47 input   59.99 | X-H torsion
[ 3781 1176 1175 1172 ] final   19.99 input   60.00 | X-H torsion
[ 4531 1957 1955 1953 ] final   96.21 input   60.00 | X-H torsion
[ 3847 1247 1246 1244 ] final -103.62 input   60.00 | X-H torsion
[ 4507 1931 1930 1928 ] final -158.25 input   60.00 | X-H torsion
[ 3677 1070 1069 1066 ] final   80.19 input   60.00 | X-H torsion

> <Gold.Protein.ActiveResidues>
 GLY266  PHE267  PRO268  GLU269  MET310  HIS334  ASP335  TRP336  GLY337  GLY338 
 MET339  LEU340  TRP342  TYR343  LEU358  ASN359  THR360  PRO361  ILE363  ALA365 
 MET369  SER370  PRO371  LEU372  GLU373  SER374  ILE375  LYS376  ALA377  ASN378 
 VAL380  PHE381  ASP382  TYR383  GLN384  PHE387  GLN388  LEU397  SER407  LEU408 
 PHE409  ARG410  LEU417  MET419  LEU428  PHE429  PHE459  TRP465  TYR466  ASN468 
 MET469  GLU470  ASN472  TRP473  ALA476  ASP496  PHE497  VAL498  LEU499  MET503 
 HIS524  TRP525 

> <Gold.Protein.RotatedAtoms>
   -2.5892  -30.1123  -29.0878 H   0  0  0  0  0  0  0  0  0  0  0  0  # atno 3525 bound_to 925 
  -12.1637  -22.2686  -30.3601 H   0  0  0  0  0  0  0  0  0  0  0  0  # atno 3677 bound_to 1070
  -10.8278  -37.3667  -33.3734 H   0  0  0  0  0  0  0  0  0  0  0  0  # atno 3781 bound_to 1176
  -15.7552  -27.3368  -37.5655 H   0  0  0  0  0  0  0  0  0  0  0  0  # atno 3847 bound_to 1247
  -13.1076  -24.0172  -40.3845 H   0  0  0  0  0  0  0  0  0  0  0  0  # atno 4507 bound_to 1931
   -2.7239  -33.8874  -36.7383 H   0  0  0  0  0  0  0  0  0  0  0  0  # atno 4531 bound_to 1957
   -2.3846  -30.0564  -30.7012 LP  0  0  0  0  0  0  0  0  0  0  0  0  # atno 5201 bound_to 925 
   -3.7715  -29.5130  -30.0318 LP  0  0  0  0  0  0  0  0  0  0  0  0  # atno 5202 bound_to 925 
   -9.6903  -36.3761  -33.9839 LP  0  0  0  0  0  0  0  0  0  0  0  0  # atno 5205 bound_to 1176
   -9.5870  -36.8868  -32.4363 LP  0  0  0  0  0  0  0  0  0  0  0  0  # atno 5206 bound_to 1176
   -2.5507  -32.2693  -36.7408 LP  0  0  0  0  0  0  0  0  0  0  0  0  # atno 5213 bound_to 1957
   -1.2581  -33.2321  -37.0032 LP  0  0  0  0  0  0  0  0  0  0  0  0  # atno 5214 bound_to 1957
  -14.3165  -28.0381  -37.8592 LP  0  0  0  0  0  0  0  0  0  0  0  0  # atno 5227 bound_to 1247
  -15.4888  -28.8675  -37.0818 LP  0  0  0  0  0  0  0  0  0  0  0  0  # atno 5228 bound_to 1247
  -12.4933  -24.3631  -38.9178 LP  0  0  0  0  0  0  0  0  0  0  0  0  # atno 5245 bound_to 1931
  -13.5936  -25.3579  -39.6007 LP  0  0  0  0  0  0  0  0  0  0  0  0  # atno 5246 bound_to 1931
  -12.5719  -23.7144  -30.9857 LP  0  0  0  0  0  0  0  0  0  0  0  0  # atno 5265 bound_to 1070
  -11.1169  -23.0557  -31.3259 LP  0  0  0  0  0  0  0  0  0  0  0  0  # atno 5266 bound_to 1070

$$$$
Livi_174a|Lisa_paper2_min|sdf|10|dock2
  -GOLD-  10202014383D 1   1.00000     0.00000

 63 66  0  0  0  0  0  0  0  0  1 V2000
   -3.2879  -30.1605  -33.0722 C   0  0  0  0  0  0  0  0  0  0  0  0
   -3.7192  -31.4852  -33.0945 C   0  0  0  0  0  0  0  0  0  0  0  0
   -4.1306  -29.1282  -33.4946 C   0  0  0  0  0  0  0  0  0  0  0  0
   -5.0029  -31.8221  -33.5379 C   0  0  0  0  0  0  0  0  0  0  0  0
  -12.2329  -27.0281  -36.2349 C   0  0  0  0  0  0  0  0  0  0  0  0
  -16.7228  -24.2886  -38.8395 C   0  0  0  0  0  0  0  0  0  0  0  0
  -10.9536  -27.5380  -36.0132 C   0  0  0  0  0  0  0  0  0  0  0  0
  -17.7364  -24.0496  -39.7674 C   0  0  0  0  0  0  0  0  0  0  0  0
  -11.9951  -25.5933  -34.3057 C   0  0  0  0  0  0  0  0  0  0  0  0
  -18.3821  -24.7789  -37.1533 C   0  0  0  0  0  0  0  0  0  0  0  0
  -10.7158  -26.1032  -34.0841 C   0  0  0  0  0  0  0  0  0  0  0  0
   -5.4239  -29.4491  -33.9436 C   0  0  0  0  0  0  0  0  0  0  0  0
   -5.8417  -30.7805  -33.9599 C   0  0  0  0  0  0  0  0  0  0  0  0
  -12.7536  -26.0557  -35.3811 C   0  0  0  0  0  0  0  0  0  0  0  0
  -17.0457  -24.6533  -37.5324 C   0  0  0  0  0  0  0  0  0  0  0  0
  -10.1952  -27.0756  -34.9379 C   0  0  0  0  0  0  0  0  0  0  0  0
  -19.0729  -24.1751  -39.3883 C   0  0  0  0  0  0  0  0  0  0  0  0
  -19.3958  -24.5398  -38.0812 C   0  0  0  0  0  0  0  0  0  0  0  0
   -7.4159  -29.4102  -34.6909 C   0  0  0  0  0  0  0  0  0  0  0  0
   -8.0013  -31.8267  -34.6555 C   0  0  0  0  0  0  0  0  0  0  0  0
  -14.7651  -25.4915  -36.8144 C   0  0  0  0  0  0  0  0  0  0  0  0
   -9.9177  -25.5967  -32.9282 C   0  0  0  0  0  0  0  0  0  0  0  0
   -9.3557  -34.3404  -34.4767 C   0  0  0  0  0  0  0  0  0  0  0  0
   -7.8221  -33.9685  -36.4311 C   0  0  0  0  0  0  0  0  0  0  0  0
   -7.0524  -35.3550  -34.4834 C   0  0  0  0  0  0  0  0  0  0  0  0
   -8.7018  -28.9043  -35.2240 C   0  0  0  0  0  0  0  0  0  0  0  0
   -7.9037  -34.1631  -34.9185 C   0  0  0  0  0  0  0  0  0  0  0  0
   -6.4115  -28.6182  -34.3995 N   0  0  0  0  0  0  0  0  0  0  0  0
   -7.1422  -30.7416  -34.4489 N   0  0  0  0  0  0  0  0  0  0  0  0
  -14.0332  -25.5458  -35.6030 N   0  0  0  0  0  0  0  0  0  0  0  0
  -16.0172  -24.8962  -36.5916 N   0  0  0  0  0  0  0  0  0  0  0  0
   -9.1294  -31.6701  -35.0926 O   0  0  0  0  0  0  0  0  0  0  0  0
  -14.3586  -25.9055  -37.8953 O   0  0  0  0  0  0  0  0  0  0  0  0
   -8.9419  -27.5866  -34.7352 O   0  0  0  0  0  0  0  0  0  0  0  0
   -7.3818  -32.9816  -34.3033 O   0  0  0  0  0  0  0  0  0  0  0  0
  -20.2827  -23.8627  -40.5829 Cl  0  0  0  0  0  0  0  0  0  0  0  0
  -21.0325  -24.7096  -37.5509 Cl  0  0  0  0  0  0  0  0  0  0  0  0
   -2.2860  -29.9258  -32.7232 H   0  0  0  0  0  0  0  0  0  0  0  0
   -3.0469  -32.2723  -32.7620 H   0  0  0  0  0  0  0  0  0  0  0  0
   -3.7876  -28.0983  -33.4748 H   0  0  0  0  0  0  0  0  0  0  0  0
   -5.3140  -32.8601  -33.5456 H   0  0  0  0  0  0  0  0  0  0  0  0
  -12.8150  -27.3959  -37.0760 H   0  0  0  0  0  0  0  0  0  0  0  0
  -15.6847  -24.1893  -39.1458 H   0  0  0  0  0  0  0  0  0  0  0  0
  -10.5539  -28.2954  -36.6822 H   0  0  0  0  0  0  0  0  0  0  0  0
  -17.4664  -23.7677  -40.7822 H   0  0  0  0  0  0  0  0  0  0  0  0
  -12.3998  -24.8349  -33.6390 H   0  0  0  0  0  0  0  0  0  0  0  0
  -18.6278  -25.0625  -36.1318 H   0  0  0  0  0  0  0  0  0  0  0  0
  -10.1117  -26.2048  -32.0368 H   0  0  0  0  0  0  0  0  0  0  0  0
   -8.8426  -25.6272  -33.1446 H   0  0  0  0  0  0  0  0  0  0  0  0
  -10.1678  -24.5529  -32.7004 H   0  0  0  0  0  0  0  0  0  0  0  0
   -9.4185  -34.4804  -33.3917 H   0  0  0  0  0  0  0  0  0  0  0  0
   -9.9695  -33.4766  -34.7521 H   0  0  0  0  0  0  0  0  0  0  0  0
   -9.7957  -35.2362  -34.9299 H   0  0  0  0  0  0  0  0  0  0  0  0
   -6.7821  -33.8409  -36.7525 H   0  0  0  0  0  0  0  0  0  0  0  0
   -8.3535  -33.0600  -36.7369 H   0  0  0  0  0  0  0  0  0  0  0  0
   -8.2501  -34.8190  -36.9715 H   0  0  0  0  0  0  0  0  0  0  0  0
   -6.0108  -35.2280  -34.8001 H   0  0  0  0  0  0  0  0  0  0  0  0
   -7.0694  -35.4874  -33.3967 H   0  0  0  0  0  0  0  0  0  0  0  0
   -7.4076  -36.2796  -34.9526 H   0  0  0  0  0  0  0  0  0  0  0  0
   -8.7041  -28.8678  -36.3258 H   0  0  0  0  0  0  0  0  0  0  0  0
   -9.5473  -29.5442  -34.9228 H   0  0  0  0  0  0  0  0  0  0  0  0
  -14.5067  -25.1589  -34.7798 H   0  0  0  0  0  0  0  0  0  0  0  0
  -16.2154  -24.6005  -35.6391 H   0  0  0  0  0  0  0  0  0  0  0  0
  1  2  2  0  0  0  0
  1  3  1  0  0  0  0
  2  4  1  0  0  0  0
  3 12  2  0  0  0  0
  4 13  2  0  0  0  0
  5  7  2  0  0  0  0
  5 14  1  0  0  0  0
  6  8  1  0  0  0  0
  6 15  2  0  0  0  0
  7 16  1  0  0  0  0
  8 17  2  0  0  0  0
  9 11  1  0  0  0  0
  9 14  2  0  0  0  0
 10 15  1  0  0  0  0
 10 18  2  0  0  0  0
 11 16  2  0  0  0  0
 11 22  1  0  0  0  0
 12 13  1  0  0  0  0
 12 28  1  0  0  0  0
 13 29  1  0  0  0  0
 14 30  1  0  0  0  0
 15 31  1  0  0  0  0
 16 34  1  0  0  0  0
 17 18  1  0  0  0  0
 17 36  1  0  0  0  0
 18 37  1  0  0  0  0
 19 26  1  0  0  0  0
 19 28  2  0  0  0  0
 19 29  1  0  0  0  0
 20 29  1  0  0  0  0
 20 32  2  0  0  0  0
 20 35  1  0  0  0  0
 21 30  1  0  0  0  0
 21 31  1  0  0  0  0
 21 33  2  0  0  0  0
 23 27  1  0  0  0  0
 24 27  1  0  0  0  0
 25 27  1  0  0  0  0
 26 34  1  0  0  0  0
 27 35  1  0  0  0  0
  1 38  1  0  0  0  0
  2 39  1  0  0  0  0
  3 40  1  0  0  0  0
  4 41  1  0  0  0  0
  5 42  1  0  0  0  0
  6 43  1  0  0  0  0
  7 44  1  0  0  0  0
  8 45  1  0  0  0  0
  9 46  1  0  0  0  0
 10 47  1  0  0  0  0
 22 48  1  0  0  0  0
 22 49  1  0  0  0  0
 22 50  1  0  0  0  0
 23 51  1  0  0  0  0
 23 52  1  0  0  0  0
 23 53  1  0  0  0  0
 24 54  1  0  0  0  0
 24 55  1  0  0  0  0
 24 56  1  0  0  0  0
 25 57  1  0  0  0  0
 25 58  1  0  0  0  0
 25 59  1  0  0  0  0
 26 60  1  0  0  0  0
 26 61  1  0  0  0  0
 30 62  1  0  0  0  0
 31 63  1  0  0  0  0
M  END
> <Clean Energy>
84.5744

> <SourceTag>
Livi_174a

> <Activity_FLAP>
100

> <Activity_sEH>
0.7

> <Gold.Version>
5.2

> <Gold.Id.Protein>
6HGV|6HGV_protein|mol2

> <Gold.PLP.Fitness>
92.0935

> <Gold.PLP.PLP>
-86.6645

> <Gold.PLP.part.hbond>
-6.8820

> <Gold.PLP.part.metal>
0.0000

> <Gold.PLP.part.buried>
9.5195

> <Gold.PLP.part.nonpolar>
-89.8702

> <Gold.PLP.part.repulsive>
0.1015

> <Gold.PLP.ligand.clash>
0.0211

> <Gold.PLP.ligand.torsion>
1.4923

> <Gold.PLP.Chemscore.Hbond>
1.9444

> <Gold.PLP.Chemscore.CHOScore>
0.0000

> <Gold.PLP.Chemscore.Metal>
0.0000

> <Gold.Chemscore.Hbonds>
donor molecule, donor type, donor heavy atom, donor atom, acceptor molecule, acceptor atom, score
      L1  H    30    62       P1   853  0.25
      L1  H    31    63       P1   853  0.09
      P1  H  1247  3847       L1    33  0.61
      P1  H  1931  4507       L1    33  1.00

> <Gold.PLP.Chemscore.Internal.Correction>
0.4483

> <Gold.Protein.RotatedTorsions>
[ 3525  925  924  922 ] final  148.91 input   59.99 | X-H torsion
[ 3781 1176 1175 1172 ] final   78.14 input   60.00 | X-H torsion
[ 4531 1957 1955 1953 ] final  148.51 input   60.00 | X-H torsion
[ 3847 1247 1246 1244 ] final  173.56 input   60.00 | X-H torsion
[ 4507 1931 1930 1928 ] final   -1.56 input   60.00 | X-H torsion
[ 3677 1070 1069 1066 ] final   12.11 input   60.00 | X-H torsion

> <Gold.Protein.ActiveResidues>
 GLY266  PHE267  PRO268  GLU269  MET310  HIS334  ASP335  TRP336  GLY337  GLY338 
 MET339  LEU340  TRP342  TYR343  LEU358  ASN359  THR360  PRO361  ILE363  ALA365 
 MET369  SER370  PRO371  LEU372  GLU373  SER374  ILE375  LYS376  ALA377  ASN378 
 VAL380  PHE381  ASP382  TYR383  GLN384  PHE387  GLN388  LEU397  SER407  LEU408 
 PHE409  ARG410  LEU417  MET419  LEU428  PHE429  PHE459  TRP465  TYR466  ASN468 
 MET469  GLU470  ASN472  TRP473  ALA476  ASP496  PHE497  VAL498  LEU499  MET503 
 HIS524  TRP525 

> <Gold.Protein.RotatedAtoms>
   -2.0599  -30.2713  -29.8716 H   0  0  0  0  0  0  0  0  0  0  0  0  # atno 3525 bound_to 925 
  -12.8041  -23.0848  -30.5100 H   0  0  0  0  0  0  0  0  0  0  0  0  # atno 3677 bound_to 1070
  -10.4035  -37.3851  -32.5686 H   0  0  0  0  0  0  0  0  0  0  0  0  # atno 3781 bound_to 1176
  -14.5927  -27.5149  -37.9536 H   0  0  0  0  0  0  0  0  0  0  0  0  # atno 3847 bound_to 1247
  -13.2732  -25.3204  -39.1051 H   0  0  0  0  0  0  0  0  0  0  0  0  # atno 4507 bound_to 1931
   -1.9259  -34.0305  -36.8925 H   0  0  0  0  0  0  0  0  0  0  0  0  # atno 4531 bound_to 1957
   -3.2640  -29.6655  -30.7834 LP  0  0  0  0  0  0  0  0  0  0  0  0  # atno 5201 bound_to 925 
   -3.4251  -29.7437  -29.1603 LP  0  0  0  0  0  0  0  0  0  0  0  0  # atno 5202 bound_to 925 
  -10.4661  -36.8488  -34.1037 LP  0  0  0  0  0  0  0  0  0  0  0  0  # atno 5205 bound_to 1176
   -9.2385  -36.3956  -33.1269 LP  0  0  0  0  0  0  0  0  0  0  0  0  # atno 5206 bound_to 1176
   -3.0773  -32.9059  -36.6517 LP  0  0  0  0  0  0  0  0  0  0  0  0  # atno 5213 bound_to 1957
   -1.5350  -32.4514  -36.9371 LP  0  0  0  0  0  0  0  0  0  0  0  0  # atno 5214 bound_to 1957
  -14.9245  -28.9540  -37.2702 LP  0  0  0  0  0  0  0  0  0  0  0  0  # atno 5227 bound_to 1247
  -16.0514  -27.7723  -37.2799 LP  0  0  0  0  0  0  0  0  0  0  0  0  # atno 5228 bound_to 1247
  -13.4804  -24.4671  -40.4751 LP  0  0  0  0  0  0  0  0  0  0  0  0  # atno 5245 bound_to 1931
  -12.4397  -23.9414  -39.3318 LP  0  0  0  0  0  0  0  0  0  0  0  0  # atno 5246 bound_to 1931
  -11.6212  -23.6984  -31.4440 LP  0  0  0  0  0  0  0  0  0  0  0  0  # atno 5265 bound_to 1070
  -11.4227  -22.2498  -30.7167 LP  0  0  0  0  0  0  0  0  0  0  0  0  # atno 5266 bound_to 1070

$$$$
Livi_174a|Lisa_paper2_min|sdf|10|dock4
  -GOLD-  10202014393D 1   1.00000     0.00000

 63 66  0  0  0  0  0  0  0  0  1 V2000
   -3.4176  -31.8780  -33.1279 C   0  0  0  0  0  0  0  0  0  0  0  0
   -4.2743  -32.3395  -32.1307 C   0  0  0  0  0  0  0  0  0  0  0  0
   -3.8986  -31.0776  -34.1681 C   0  0  0  0  0  0  0  0  0  0  0  0
   -5.6361  -32.0176  -32.1389 C   0  0  0  0  0  0  0  0  0  0  0  0
  -11.5445  -27.0876  -36.6726 C   0  0  0  0  0  0  0  0  0  0  0  0
  -16.1810  -23.2813  -39.3792 C   0  0  0  0  0  0  0  0  0  0  0  0
  -10.5778  -27.9141  -36.0998 C   0  0  0  0  0  0  0  0  0  0  0  0
  -17.4772  -23.1818  -39.8848 C   0  0  0  0  0  0  0  0  0  0  0  0
  -10.8859  -25.2934  -35.1947 C   0  0  0  0  0  0  0  0  0  0  0  0
  -16.9839  -24.7070  -37.6016 C   0  0  0  0  0  0  0  0  0  0  0  0
   -9.9192  -26.1199  -34.6219 C   0  0  0  0  0  0  0  0  0  0  0  0
   -5.2646  -30.7447  -34.1919 C   0  0  0  0  0  0  0  0  0  0  0  0
   -6.1103  -31.2142  -33.1860 C   0  0  0  0  0  0  0  0  0  0  0  0
  -11.6985  -25.7771  -36.2200 C   0  0  0  0  0  0  0  0  0  0  0  0
  -15.9344  -24.0440  -38.2375 C   0  0  0  0  0  0  0  0  0  0  0  0
   -9.7653  -27.4302  -35.0745 C   0  0  0  0  0  0  0  0  0  0  0  0
  -18.5267  -23.8447  -39.2488 C   0  0  0  0  0  0  0  0  0  0  0  0
  -18.2801  -24.6074  -38.1072 C   0  0  0  0  0  0  0  0  0  0  0  0
   -7.1928  -29.9815  -34.6686 C   0  0  0  0  0  0  0  0  0  0  0  0
   -8.5590  -30.8980  -32.8039 C   0  0  0  0  0  0  0  0  0  0  0  0
  -13.9836  -25.2789  -37.1943 C   0  0  0  0  0  0  0  0  0  0  0  0
   -9.0580  -25.5855  -33.5254 C   0  0  0  0  0  0  0  0  0  0  0  0
   -9.0928  -32.9213  -29.8043 C   0  0  0  0  0  0  0  0  0  0  0  0
  -10.0373  -30.6650  -30.3760 C   0  0  0  0  0  0  0  0  0  0  0  0
  -10.5318  -32.6378  -31.8497 C   0  0  0  0  0  0  0  0  0  0  0  0
   -8.2793  -29.2629  -35.3736 C   0  0  0  0  0  0  0  0  0  0  0  0
   -9.4983  -31.9793  -30.9370 C   0  0  0  0  0  0  0  0  0  0  0  0
   -5.9534  -29.9850  -35.0986 N   0  0  0  0  0  0  0  0  0  0  0  0
   -7.3645  -30.7094  -33.5082 N   0  0  0  0  0  0  0  0  0  0  0  0
  -12.6655  -24.9506  -36.7931 N   0  0  0  0  0  0  0  0  0  0  0  0
  -14.6193  -24.1452  -37.7254 N   0  0  0  0  0  0  0  0  0  0  0  0
   -9.6065  -30.4023  -33.1849 O   0  0  0  0  0  0  0  0  0  0  0  0
  -14.4886  -26.3920  -37.0899 O   0  0  0  0  0  0  0  0  0  0  0  0
   -8.8218  -28.2547  -34.5239 O   0  0  0  0  0  0  0  0  0  0  0  0
   -8.3357  -31.6724  -31.7122 O   0  0  0  0  0  0  0  0  0  0  0  0
  -20.1104  -23.6799  -39.9219 Cl  0  0  0  0  0  0  0  0  0  0  0  0
  -19.5389  -25.4501  -37.2739 Cl  0  0  0  0  0  0  0  0  0  0  0  0
   -2.3641  -32.1425  -33.0982 H   0  0  0  0  0  0  0  0  0  0  0  0
   -3.8789  -32.9613  -31.3313 H   0  0  0  0  0  0  0  0  0  0  0  0
   -3.2253  -30.7219  -34.9420 H   0  0  0  0  0  0  0  0  0  0  0  0
   -6.2813  -32.3893  -31.3516 H   0  0  0  0  0  0  0  0  0  0  0  0
  -12.1722  -27.4753  -37.4709 H   0  0  0  0  0  0  0  0  0  0  0  0
  -15.3701  -22.7619  -39.8833 H   0  0  0  0  0  0  0  0  0  0  0  0
  -10.4630  -28.9339  -36.4571 H   0  0  0  0  0  0  0  0  0  0  0  0
  -17.6508  -22.5842  -40.7763 H   0  0  0  0  0  0  0  0  0  0  0  0
  -11.0048  -24.2716  -34.8407 H   0  0  0  0  0  0  0  0  0  0  0  0
  -16.7855  -25.2994  -36.7106 H   0  0  0  0  0  0  0  0  0  0  0  0
   -9.5250  -25.7703  -32.5509 H   0  0  0  0  0  0  0  0  0  0  0  0
   -8.0676  -26.0573  -33.5332 H   0  0  0  0  0  0  0  0  0  0  0  0
   -8.8979  -24.5058  -33.6372 H   0  0  0  0  0  0  0  0  0  0  0  0
   -8.7055  -33.8657  -30.2029 H   0  0  0  0  0  0  0  0  0  0  0  0
   -8.3264  -32.4742  -29.1628 H   0  0  0  0  0  0  0  0  0  0  0  0
   -9.9574  -33.1797  -29.1822 H   0  0  0  0  0  0  0  0  0  0  0  0
  -10.3295  -29.9861  -31.1852 H   0  0  0  0  0  0  0  0  0  0  0  0
   -9.2668  -30.1424  -29.7977 H   0  0  0  0  0  0  0  0  0  0  0  0
  -10.9055  -30.8277  -29.7293 H   0  0  0  0  0  0  0  0  0  0  0  0
  -10.8229  -31.9623  -32.6623 H   0  0  0  0  0  0  0  0  0  0  0  0
  -10.1486  -33.5638  -32.2906 H   0  0  0  0  0  0  0  0  0  0  0  0
  -11.4492  -32.8692  -31.2964 H   0  0  0  0  0  0  0  0  0  0  0  0
   -7.9204  -28.7781  -36.2963 H   0  0  0  0  0  0  0  0  0  0  0  0
   -9.0950  -29.9442  -35.6661 H   0  0  0  0  0  0  0  0  0  0  0  0
  -12.3846  -23.9760  -36.9440 H   0  0  0  0  0  0  0  0  0  0  0  0
  -14.0727  -23.2880  -37.7482 H   0  0  0  0  0  0  0  0  0  0  0  0
  1  2  2  0  0  0  0
  1  3  1  0  0  0  0
  2  4  1  0  0  0  0
  3 12  2  0  0  0  0
  4 13  2  0  0  0  0
  5  7  2  0  0  0  0
  5 14  1  0  0  0  0
  6  8  1  0  0  0  0
  6 15  2  0  0  0  0
  7 16  1  0  0  0  0
  8 17  2  0  0  0  0
  9 11  1  0  0  0  0
  9 14  2  0  0  0  0
 10 15  1  0  0  0  0
 10 18  2  0  0  0  0
 11 16  2  0  0  0  0
 11 22  1  0  0  0  0
 12 13  1  0  0  0  0
 12 28  1  0  0  0  0
 13 29  1  0  0  0  0
 14 30  1  0  0  0  0
 15 31  1  0  0  0  0
 16 34  1  0  0  0  0
 17 18  1  0  0  0  0
 17 36  1  0  0  0  0
 18 37  1  0  0  0  0
 19 26  1  0  0  0  0
 19 28  2  0  0  0  0
 19 29  1  0  0  0  0
 20 29  1  0  0  0  0
 20 32  2  0  0  0  0
 20 35  1  0  0  0  0
 21 30  1  0  0  0  0
 21 31  1  0  0  0  0
 21 33  2  0  0  0  0
 23 27  1  0  0  0  0
 24 27  1  0  0  0  0
 25 27  1  0  0  0  0
 26 34  1  0  0  0  0
 27 35  1  0  0  0  0
  1 38  1  0  0  0  0
  2 39  1  0  0  0  0
  3 40  1  0  0  0  0
  4 41  1  0  0  0  0
  5 42  1  0  0  0  0
  6 43  1  0  0  0  0
  7 44  1  0  0  0  0
  8 45  1  0  0  0  0
  9 46  1  0  0  0  0
 10 47  1  0  0  0  0
 22 48  1  0  0  0  0
 22 49  1  0  0  0  0
 22 50  1  0  0  0  0
 23 51  1  0  0  0  0
 23 52  1  0  0  0  0
 23 53  1  0  0  0  0
 24 54  1  0  0  0  0
 24 55  1  0  0  0  0
 24 56  1  0  0  0  0
 25 57  1  0  0  0  0
 25 58  1  0  0  0  0
 25 59  1  0  0  0  0
 26 60  1  0  0  0  0
 26 61  1  0  0  0  0
 30 62  1  0  0  0  0
 31 63  1  0  0  0  0
M  END
> <Clean Energy>
84.5744

> <SourceTag>
Livi_174a

> <Activity_FLAP>
100

> <Activity_sEH>
0.7

> <Gold.Version>
5.2

> <Gold.Id.Protein>
6HGV|6HGV_protein|mol2

> <Gold.PLP.Fitness>
89.5440

> <Gold.PLP.PLP>
-88.0874

> <Gold.PLP.part.hbond>
-8.7082

> <Gold.PLP.part.metal>
0.0000

> <Gold.PLP.part.buried>
5.1016

> <Gold.PLP.part.nonpolar>
-84.4217

> <Gold.PLP.part.repulsive>
0.0829

> <Gold.PLP.ligand.clash>
0.0000

> <Gold.PLP.ligand.torsion>
1.0189

> <Gold.PLP.Chemscore.Hbond>
0.6069

> <Gold.PLP.Chemscore.CHOScore>
0.0000

> <Gold.PLP.Chemscore.Metal>
0.0000

> <Gold.Chemscore.Hbonds>
donor molecule, donor type, donor heavy atom, donor atom, acceptor molecule, acceptor atom, score
      L1  H    30    62       P1   854  0.06
      L1  H    31    63       P1   854  0.02
      P1  H  1247  3847       L1    33  0.52

> <Gold.PLP.Chemscore.Internal.Correction>
0.4483

> <Gold.Protein.RotatedTorsions>
[ 3525  925  924  922 ] final   82.79 input   59.99 | X-H torsion
[ 3781 1176 1175 1172 ] final  -37.58 input   60.00 | X-H torsion
[ 4531 1957 1955 1953 ] final  117.20 input   60.00 | X-H torsion
[ 3847 1247 1246 1244 ] final -144.95 input   60.00 | X-H torsion
[ 4507 1931 1930 1928 ] final   24.16 input   60.00 | X-H torsion
[ 3677 1070 1069 1066 ] final -147.18 input   60.00 | X-H torsion

> <Gold.Protein.ActiveResidues>
 GLY266  PHE267  PRO268  GLU269  MET310  HIS334  ASP335  TRP336  GLY337  GLY338 
 MET339  LEU340  TRP342  TYR343  LEU358  ASN359  THR360  PRO361  ILE363  ALA365 
 MET369  SER370  PRO371  LEU372  GLU373  SER374  ILE375  LYS376  ALA377  ASN378 
 VAL380  PHE381  ASP382  TYR383  GLN384  PHE387  GLN388  LEU397  SER407  LEU408 
 PHE409  ARG410  LEU417  MET419  LEU428  PHE429  PHE459  TRP465  TYR466  ASN468 
 MET469  GLU470  ASN472  TRP473  ALA476  ASP496  PHE497  VAL498  LEU499  MET503 
 HIS524  TRP525 

> <Gold.Protein.RotatedAtoms>
   -2.4836  -30.0051  -30.7621 H   0  0  0  0  0  0  0  0  0  0  0  0  # atno 3525 bound_to 925 
  -11.1927  -23.2374  -31.3892 H   0  0  0  0  0  0  0  0  0  0  0  0  # atno 3677 bound_to 1070
  -10.5107  -36.8934  -34.0721 H   0  0  0  0  0  0  0  0  0  0  0  0  # atno 3781 bound_to 1176
  -15.1702  -27.2078  -37.8444 H   0  0  0  0  0  0  0  0  0  0  0  0  # atno 3847 bound_to 1247
  -12.9935  -25.1161  -38.8733 H   0  0  0  0  0  0  0  0  0  0  0  0  # atno 4507 bound_to 1931
   -2.4223  -34.0350  -36.7982 H   0  0  0  0  0  0  0  0  0  0  0  0  # atno 4531 bound_to 1957
   -3.7795  -29.5211  -29.9051 LP  0  0  0  0  0  0  0  0  0  0  0  0  # atno 5201 bound_to 925 
   -2.4830  -30.1561  -29.1419 LP  0  0  0  0  0  0  0  0  0  0  0  0  # atno 5202 bound_to 925 
   -9.2432  -36.3738  -33.1937 LP  0  0  0  0  0  0  0  0  0  0  0  0  # atno 5205 bound_to 1176
  -10.3534  -37.3658  -32.5228 LP  0  0  0  0  0  0  0  0  0  0  0  0  # atno 5206 bound_to 1176
   -2.8298  -32.4631  -36.6911 LP  0  0  0  0  0  0  0  0  0  0  0  0  # atno 5213 bound_to 1957
   -1.2826  -32.8897  -36.9926 LP  0  0  0  0  0  0  0  0  0  0  0  0  # atno 5214 bound_to 1957
  -14.4307  -28.6342  -37.5863 LP  0  0  0  0  0  0  0  0  0  0  0  0  # atno 5227 bound_to 1247
  -15.9636  -28.4013  -37.0737 LP  0  0  0  0  0  0  0  0  0  0  0  0  # atno 5228 bound_to 1247
  -13.6490  -24.8247  -40.3339 LP  0  0  0  0  0  0  0  0  0  0  0  0  # atno 5245 bound_to 1931
  -12.5528  -23.7896  -39.7065 LP  0  0  0  0  0  0  0  0  0  0  0  0  # atno 5246 bound_to 1931
  -11.9773  -22.1973  -30.4141 LP  0  0  0  0  0  0  0  0  0  0  0  0  # atno 5265 bound_to 1070
  -12.6893  -23.5972  -30.8613 LP  0  0  0  0  0  0  0  0  0  0  0  0  # atno 5266 bound_to 1070

$$$$
Livi_174a|Lisa_paper2_min|sdf|10|dock7
  -GOLD-  10202014403D 1   1.00000     0.00000

 63 66  0  0  0  0  0  0  0  0  1 V2000
   -8.0917  -33.5325  -36.6695 C   0  0  0  0  0  0  0  0  0  0  0  0
   -7.3218  -33.7068  -35.5214 C   0  0  0  0  0  0  0  0  0  0  0  0
   -9.2054  -32.6877  -36.6608 C   0  0  0  0  0  0  0  0  0  0  0  0
   -7.6374  -33.0449  -34.3297 C   0  0  0  0  0  0  0  0  0  0  0  0
  -13.6159  -27.5496  -35.8038 C   0  0  0  0  0  0  0  0  0  0  0  0
  -17.0542  -23.4643  -39.9562 C   0  0  0  0  0  0  0  0  0  0  0  0
  -12.8707  -28.2833  -34.8808 C   0  0  0  0  0  0  0  0  0  0  0  0
  -18.3247  -23.0901  -40.3937 C   0  0  0  0  0  0  0  0  0  0  0  0
  -11.9194  -25.8295  -35.8059 C   0  0  0  0  0  0  0  0  0  0  0  0
  -18.0438  -24.6590  -38.1040 C   0  0  0  0  0  0  0  0  0  0  0  0
  -11.1741  -26.5632  -34.8830 C   0  0  0  0  0  0  0  0  0  0  0  0
   -9.5370  -32.0148  -35.4713 C   0  0  0  0  0  0  0  0  0  0  0  0
   -8.7563  -32.1993  -34.3296 C   0  0  0  0  0  0  0  0  0  0  0  0
  -13.1402  -26.3226  -36.2663 C   0  0  0  0  0  0  0  0  0  0  0  0
  -16.9138  -24.2488  -38.8113 C   0  0  0  0  0  0  0  0  0  0  0  0
  -11.6499  -27.7902  -34.4204 C   0  0  0  0  0  0  0  0  0  0  0  0
  -19.4548  -23.5002  -39.6863 C   0  0  0  0  0  0  0  0  0  0  0  0
  -19.3143  -24.2847  -38.5414 C   0  0  0  0  0  0  0  0  0  0  0  0
  -10.4333  -30.8041  -33.9685 C   0  0  0  0  0  0  0  0  0  0  0  0
   -8.9404  -31.2427  -32.0289 C   0  0  0  0  0  0  0  0  0  0  0  0
  -15.2932  -25.4677  -37.2923 C   0  0  0  0  0  0  0  0  0  0  0  0
   -9.8694  -26.0203  -34.4009 C   0  0  0  0  0  0  0  0  0  0  0  0
   -8.7787  -32.9642  -29.8062 C   0  0  0  0  0  0  0  0  0  0  0  0
   -6.3334  -33.1576  -30.3474 C   0  0  0  0  0  0  0  0  0  0  0  0
   -7.2995  -30.9304  -29.7037 C   0  0  0  0  0  0  0  0  0  0  0  0
  -11.3599  -29.8652  -33.2950 C   0  0  0  0  0  0  0  0  0  0  0  0
   -7.5661  -32.2583  -30.4112 C   0  0  0  0  0  0  0  0  0  0  0  0
  -10.5687  -31.1490  -35.2270 N   0  0  0  0  0  0  0  0  0  0  0  0
   -9.3509  -31.4043  -33.3569 N   0  0  0  0  0  0  0  0  0  0  0  0
  -13.8858  -25.5889  -37.1896 N   0  0  0  0  0  0  0  0  0  0  0  0
  -15.6248  -24.6287  -38.3683 N   0  0  0  0  0  0  0  0  0  0  0  0
   -9.5452  -30.5128  -31.2610 O   0  0  0  0  0  0  0  0  0  0  0  0
  -16.0979  -26.0178  -36.5473 O   0  0  0  0  0  0  0  0  0  0  0  0
  -10.9315  -28.5232  -33.5150 O   0  0  0  0  0  0  0  0  0  0  0  0
   -7.8351  -31.9933  -31.7911 O   0  0  0  0  0  0  0  0  0  0  0  0
  -21.0009  -23.0015  -40.2771 Cl  0  0  0  0  0  0  0  0  0  0  0  0
  -20.6759  -24.8221  -37.6215 Cl  0  0  0  0  0  0  0  0  0  0  0  0
   -7.8249  -34.0583  -37.5822 H   0  0  0  0  0  0  0  0  0  0  0  0
   -6.4601  -34.3692  -35.5506 H   0  0  0  0  0  0  0  0  0  0  0  0
   -9.8009  -32.5570  -37.5591 H   0  0  0  0  0  0  0  0  0  0  0  0
   -7.0226  -33.1977  -33.4506 H   0  0  0  0  0  0  0  0  0  0  0  0
  -14.5660  -27.9437  -36.1556 H   0  0  0  0  0  0  0  0  0  0  0  0
  -16.1803  -23.1406  -40.5156 H   0  0  0  0  0  0  0  0  0  0  0  0
  -13.2470  -29.2385  -34.5246 H   0  0  0  0  0  0  0  0  0  0  0  0
  -18.4154  -22.4798  -41.2888 H   0  0  0  0  0  0  0  0  0  0  0  0
  -11.5470  -24.8727  -36.1658 H   0  0  0  0  0  0  0  0  0  0  0  0
  -17.9278  -25.2698  -37.2109 H   0  0  0  0  0  0  0  0  0  0  0  0
  -10.0211  -25.4038  -33.5071 H   0  0  0  0  0  0  0  0  0  0  0  0
   -9.1705  -26.8289  -34.1530 H   0  0  0  0  0  0  0  0  0  0  0  0
   -9.3864  -25.4062  -35.1712 H   0  0  0  0  0  0  0  0  0  0  0  0
   -9.6654  -32.3219  -29.8501 H   0  0  0  0  0  0  0  0  0  0  0  0
   -9.0016  -33.9010  -30.3273 H   0  0  0  0  0  0  0  0  0  0  0  0
   -8.6119  -33.1889  -28.7465 H   0  0  0  0  0  0  0  0  0  0  0  0
   -5.4609  -32.6551  -30.7803 H   0  0  0  0  0  0  0  0  0  0  0  0
   -6.4860  -34.0711  -30.9335 H   0  0  0  0  0  0  0  0  0  0  0  0
   -6.0939  -33.4424  -29.3177 H   0  0  0  0  0  0  0  0  0  0  0  0
   -6.4298  -30.4238  -30.1375 H   0  0  0  0  0  0  0  0  0  0  0  0
   -8.1606  -30.2576  -29.7712 H   0  0  0  0  0  0  0  0  0  0  0  0
   -7.0666  -31.0928  -28.6451 H   0  0  0  0  0  0  0  0  0  0  0  0
  -12.3909  -29.9631  -33.6729 H   0  0  0  0  0  0  0  0  0  0  0  0
  -11.3991  -30.0417  -32.2076 H   0  0  0  0  0  0  0  0  0  0  0  0
  -13.3427  -25.0681  -37.8863 H   0  0  0  0  0  0  0  0  0  0  0  0
  -14.8476  -24.2437  -38.8990 H   0  0  0  0  0  0  0  0  0  0  0  0
  1  2  2  0  0  0  0
  1  3  1  0  0  0  0
  2  4  1  0  0  0  0
  3 12  2  0  0  0  0
  4 13  2  0  0  0  0
  5  7  2  0  0  0  0
  5 14  1  0  0  0  0
  6  8  1  0  0  0  0
  6 15  2  0  0  0  0
  7 16  1  0  0  0  0
  8 17  2  0  0  0  0
  9 11  1  0  0  0  0
  9 14  2  0  0  0  0
 10 15  1  0  0  0  0
 10 18  2  0  0  0  0
 11 16  2  0  0  0  0
 11 22  1  0  0  0  0
 12 13  1  0  0  0  0
 12 28  1  0  0  0  0
 13 29  1  0  0  0  0
 14 30  1  0  0  0  0
 15 31  1  0  0  0  0
 16 34  1  0  0  0  0
 17 18  1  0  0  0  0
 17 36  1  0  0  0  0
 18 37  1  0  0  0  0
 19 26  1  0  0  0  0
 19 28  2  0  0  0  0
 19 29  1  0  0  0  0
 20 29  1  0  0  0  0
 20 32  2  0  0  0  0
 20 35  1  0  0  0  0
 21 30  1  0  0  0  0
 21 31  1  0  0  0  0
 21 33  2  0  0  0  0
 23 27  1  0  0  0  0
 24 27  1  0  0  0  0
 25 27  1  0  0  0  0
 26 34  1  0  0  0  0
 27 35  1  0  0  0  0
  1 38  1  0  0  0  0
  2 39  1  0  0  0  0
  3 40  1  0  0  0  0
  4 41  1  0  0  0  0
  5 42  1  0  0  0  0
  6 43  1  0  0  0  0
  7 44  1  0  0  0  0
  8 45  1  0  0  0  0
  9 46  1  0  0  0  0
 10 47  1  0  0  0  0
 22 48  1  0  0  0  0
 22 49  1  0  0  0  0
 22 50  1  0  0  0  0
 23 51  1  0  0  0  0
 23 52  1  0  0  0  0
 23 53  1  0  0  0  0
 24 54  1  0  0  0  0
 24 55  1  0  0  0  0
 24 56  1  0  0  0  0
 25 57  1  0  0  0  0
 25 58  1  0  0  0  0
 25 59  1  0  0  0  0
 26 60  1  0  0  0  0
 26 61  1  0  0  0  0
 30 62  1  0  0  0  0
 31 63  1  0  0  0  0
M  END
> <Clean Energy>
84.5744

> <SourceTag>
Livi_174a

> <Activity_FLAP>
100

> <Activity_sEH>
0.7

> <Gold.Version>
5.2

> <Gold.Id.Protein>
6HGV|6HGV_protein|mol2

> <Gold.PLP.Fitness>
88.0349

> <Gold.PLP.PLP>
-85.2734

> <Gold.PLP.part.hbond>
-10.1092

> <Gold.PLP.part.metal>
0.0000

> <Gold.PLP.part.buried>
8.9546

> <Gold.PLP.part.nonpolar>
-84.2594

> <Gold.PLP.part.repulsive>
0.1084

> <Gold.PLP.ligand.clash>
1.7399

> <Gold.PLP.ligand.torsion>
1.3278

> <Gold.PLP.Chemscore.Hbond>
1.6252

> <Gold.PLP.Chemscore.CHOScore>
0.0000

> <Gold.PLP.Chemscore.Metal>
0.0000

> <Gold.Chemscore.Hbonds>
donor molecule, donor type, donor heavy atom, donor atom, acceptor molecule, acceptor atom, score
      L1  H    30    62       P1  1931  0.95
      P1  H  1256  3854       L1    28  0.66
      P1  H  1247  3847       L1    33  0.01

> <Gold.PLP.Chemscore.Internal.Correction>
0.4008

> <Gold.Protein.RotatedTorsions>
[ 3525  925  924  922 ] final   -2.48 input   59.99 | X-H torsion
[ 3781 1176 1175 1172 ] final  -37.17 input   60.00 | X-H torsion
[ 4531 1957 1955 1953 ] final  -99.26 input   60.00 | X-H torsion
[ 3847 1247 1246 1244 ] final  -91.34 input   60.00 | X-H torsion
[ 4507 1931 1930 1928 ] final -145.56 input   60.00 | X-H torsion
[ 3677 1070 1069 1066 ] final   67.80 input   60.00 | X-H torsion

> <Gold.Protein.ActiveResidues>
 GLY266  PHE267  PRO268  GLU269  MET310  HIS334  ASP335  TRP336  GLY337  GLY338 
 MET339  LEU340  TRP342  TYR343  LEU358  ASN359  THR360  PRO361  ILE363  ALA365 
 MET369  SER370  PRO371  LEU372  GLU373  SER374  ILE375  LYS376  ALA377  ASN378 
 VAL380  PHE381  ASP382  TYR383  GLN384  PHE387  GLN388  LEU397  SER407  LEU408 
 PHE409  ARG410  LEU417  MET419  LEU428  PHE429  PHE459  TRP465  TYR466  ASN468 
 MET469  GLU470  ASN472  TRP473  ALA476  ASP496  PHE497  VAL498  LEU499  MET503 
 HIS524  TRP525 

> <Gold.Protein.RotatedAtoms>
   -3.6190  -29.5394  -30.4421 H   0  0  0  0  0  0  0  0  0  0  0  0  # atno 3525 bound_to 925 
  -12.3377  -22.3670  -30.3305 H   0  0  0  0  0  0  0  0  0  0  0  0  # atno 3677 bound_to 1070
  -10.5152  -36.8975  -34.0693 H   0  0  0  0  0  0  0  0  0  0  0  0  # atno 3781 bound_to 1176
  -15.8851  -27.4549  -37.4693 H   0  0  0  0  0  0  0  0  0  0  0  0  # atno 3847 bound_to 1247
  -13.2450  -24.1561  -40.4522 H   0  0  0  0  0  0  0  0  0  0  0  0  # atno 4507 bound_to 1931
   -1.4564  -32.5499  -36.9561 H   0  0  0  0  0  0  0  0  0  0  0  0  # atno 4531 bound_to 1957
   -2.9868  -29.9495  -28.9999 LP  0  0  0  0  0  0  0  0  0  0  0  0  # atno 5201 bound_to 925 
   -2.1322  -30.1968  -30.3693 LP  0  0  0  0  0  0  0  0  0  0  0  0  # atno 5202 bound_to 925 
   -9.2439  -36.3718  -33.2001 LP  0  0  0  0  0  0  0  0  0  0  0  0  # atno 5205 bound_to 1176
  -10.3482  -37.3636  -32.5192 LP  0  0  0  0  0  0  0  0  0  0  0  0  # atno 5206 bound_to 1176
   -2.0463  -34.0639  -36.8677 LP  0  0  0  0  0  0  0  0  0  0  0  0  # atno 5213 bound_to 1957
   -3.0387  -32.7843  -36.6570 LP  0  0  0  0  0  0  0  0  0  0  0  0  # atno 5214 bound_to 1957
  -14.3695  -27.8504  -37.9102 LP  0  0  0  0  0  0  0  0  0  0  0  0  # atno 5227 bound_to 1247
  -15.3049  -28.9363  -37.1276 LP  0  0  0  0  0  0  0  0  0  0  0  0  # atno 5228 bound_to 1247
  -12.4459  -24.1977  -39.0353 LP  0  0  0  0  0  0  0  0  0  0  0  0  # atno 5245 bound_to 1931
  -13.5026  -25.3833  -39.4150 LP  0  0  0  0  0  0  0  0  0  0  0  0  # atno 5246 bound_to 1931
  -12.4275  -23.7962  -31.1033 LP  0  0  0  0  0  0  0  0  0  0  0  0  # atno 5265 bound_to 1070
  -11.0861  -22.8748  -31.2381 LP  0  0  0  0  0  0  0  0  0  0  0  0  # atno 5266 bound_to 1070

$$$$
Molecule1_Diflapolin|Lisa_paper2_min|sdf|11|dock3
  -GOLD-  10202014433D 1   1.00000     0.00000

 47 50  0  0  0  0  0  0  0  0  1 V2000
   -3.5995  -32.8166  -33.8412 C   0  0  0  0  0  0  0  0  0  0  0  0
   -3.0640  -31.7361  -33.1486 C   0  0  0  0  0  0  0  0  0  0  0  0
   -4.8043  -32.6870  -34.5382 C   0  0  0  0  0  0  0  0  0  0  0  0
  -11.6826  -27.1407  -36.3569 C   0  0  0  0  0  0  0  0  0  0  0  0
  -17.8513  -24.9184  -37.0089 C   0  0  0  0  0  0  0  0  0  0  0  0
  -10.4244  -27.7154  -36.1765 C   0  0  0  0  0  0  0  0  0  0  0  0
   -3.7158  -30.5004  -33.1334 C   0  0  0  0  0  0  0  0  0  0  0  0
  -18.8835  -24.6603  -37.9108 C   0  0  0  0  0  0  0  0  0  0  0  0
  -10.2732  -26.6984  -33.9902 C   0  0  0  0  0  0  0  0  0  0  0  0
  -16.2264  -24.4251  -38.7274 C   0  0  0  0  0  0  0  0  0  0  0  0
  -11.5313  -26.1237  -34.1705 C   0  0  0  0  0  0  0  0  0  0  0  0
   -5.4834  -31.4494  -34.5391 C   0  0  0  0  0  0  0  0  0  0  0  0
  -16.5227  -24.8008  -37.4172 C   0  0  0  0  0  0  0  0  0  0  0  0
  -12.2360  -26.3448  -35.3538 C   0  0  0  0  0  0  0  0  0  0  0  0
   -9.7197  -27.4942  -34.9933 C   0  0  0  0  0  0  0  0  0  0  0  0
   -4.9257  -30.3775  -33.8355 C   0  0  0  0  0  0  0  0  0  0  0  0
  -18.5872  -24.2846  -39.2210 C   0  0  0  0  0  0  0  0  0  0  0  0
  -17.2586  -24.1670  -39.6293 C   0  0  0  0  0  0  0  0  0  0  0  0
   -7.0174  -29.9231  -34.9681 C   0  0  0  0  0  0  0  0  0  0  0  0
  -14.2646  -25.7300  -36.7417 C   0  0  0  0  0  0  0  0  0  0  0  0
  -12.0991  -25.2757  -33.0791 C   0  0  0  0  0  0  0  0  0  0  0  0
   -8.2391  -29.2840  -35.5034 C   0  0  0  0  0  0  0  0  0  0  0  0
   -6.6812  -31.1736  -35.1822 N   0  0  0  0  0  0  0  0  0  0  0  0
  -15.4760  -25.0620  -36.5017 N   0  0  0  0  0  0  0  0  0  0  0  0
  -13.4964  -25.7765  -35.5540 N   0  0  0  0  0  0  0  0  0  0  0  0
  -13.9175  -26.2049  -37.8182 O   0  0  0  0  0  0  0  0  0  0  0  0
   -8.4859  -28.0585  -34.8163 O   0  0  0  0  0  0  0  0  0  0  0  0
   -5.9499  -29.0004  -34.0012 S   0  0  0  0  0  0  0  0  0  0  0  0
  -19.9101  -23.9816  -40.2917 Cl  0  0  0  0  0  0  0  0  0  0  0  0
  -16.8279  -23.7075  -41.2394 Cl  0  0  0  0  0  0  0  0  0  0  0  0
   -3.0783  -33.7699  -33.8415 H   0  0  0  0  0  0  0  0  0  0  0  0
   -2.1265  -31.8527  -32.6114 H   0  0  0  0  0  0  0  0  0  0  0  0
   -5.2128  -33.5374  -35.0767 H   0  0  0  0  0  0  0  0  0  0  0  0
  -12.2220  -27.3193  -37.2838 H   0  0  0  0  0  0  0  0  0  0  0  0
  -18.0932  -25.2092  -35.9898 H   0  0  0  0  0  0  0  0  0  0  0  0
   -9.9989  -28.3348  -36.9614 H   0  0  0  0  0  0  0  0  0  0  0  0
   -3.2911  -29.6611  -32.5914 H   0  0  0  0  0  0  0  0  0  0  0  0
  -19.9131  -24.7556  -37.5749 H   0  0  0  0  0  0  0  0  0  0  0  0
   -9.7211  -26.5275  -33.0691 H   0  0  0  0  0  0  0  0  0  0  0  0
  -15.1879  -24.3362  -39.0403 H   0  0  0  0  0  0  0  0  0  0  0  0
  -11.8039  -24.2297  -33.2193 H   0  0  0  0  0  0  0  0  0  0  0  0
  -13.1944  -25.3315  -33.0639 H   0  0  0  0  0  0  0  0  0  0  0  0
  -11.7481  -25.6100  -32.0952 H   0  0  0  0  0  0  0  0  0  0  0  0
   -8.1508  -29.0606  -36.5802 H   0  0  0  0  0  0  0  0  0  0  0  0
   -9.1251  -29.9302  -35.3839 H   0  0  0  0  0  0  0  0  0  0  0  0
  -15.6187  -24.7243  -35.5531 H   0  0  0  0  0  0  0  0  0  0  0  0
  -13.9314  -25.3324  -34.7394 H   0  0  0  0  0  0  0  0  0  0  0  0
  1  2  2  0  0  0  0
  1  3  1  0  0  0  0
  2  7  1  0  0  0  0
  3 12  2  0  0  0  0
  4  6  2  0  0  0  0
  4 14  1  0  0  0  0
  5  8  2  0  0  0  0
  5 13  1  0  0  0  0
  6 15  1  0  0  0  0
  7 16  2  0  0  0  0
  8 17  1  0  0  0  0
  9 11  1  0  0  0  0
  9 15  2  0  0  0  0
 10 13  2  0  0  0  0
 10 18  1  0  0  0  0
 11 14  2  0  0  0  0
 11 21  1  0  0  0  0
 12 16  1  0  0  0  0
 12 23  1  0  0  0  0
 13 24  1  0  0  0  0
 14 25  1  0  0  0  0
 15 27  1  0  0  0  0
 16 28  1  0  0  0  0
 17 18  2  0  0  0  0
 17 29  1  0  0  0  0
 18 30  1  0  0  0  0
 19 22  1  0  0  0  0
 19 23  2  0  0  0  0
 19 28  1  0  0  0  0
 20 24  1  0  0  0  0
 20 25  1  0  0  0  0
 20 26  2  0  0  0  0
 22 27  1  0  0  0  0
  1 31  1  0  0  0  0
  2 32  1  0  0  0  0
  3 33  1  0  0  0  0
  4 34  1  0  0  0  0
  5 35  1  0  0  0  0
  6 36  1  0  0  0  0
  7 37  1  0  0  0  0
  8 38  1  0  0  0  0
  9 39  1  0  0  0  0
 10 40  1  0  0  0  0
 21 41  1  0  0  0  0
 21 42  1  0  0  0  0
 21 43  1  0  0  0  0
 22 44  1  0  0  0  0
 22 45  1  0  0  0  0
 24 46  1  0  0  0  0
 25 47  1  0  0  0  0
M  END
> <Name>
Molecule1_Diflapolin

> <SourceTag>
Molecule1_Diflapolin

> <Activity_sEH>
23

> <Activity_FLAP>
0.23

> <Gold.Version>
5.2

> <Gold.Id.Protein>
6HGV|6HGV_protein|mol2

> <Gold.PLP.Fitness>
88.7156

> <Gold.PLP.PLP>
-81.9633

> <Gold.PLP.part.hbond>
-6.8785

> <Gold.PLP.part.metal>
0.0000

> <Gold.PLP.part.buried>
7.0171

> <Gold.PLP.part.nonpolar>
-83.8397

> <Gold.PLP.part.repulsive>
0.0604

> <Gold.PLP.ligand.clash>
0.0000

> <Gold.PLP.ligand.torsion>
0.9347

> <Gold.PLP.Chemscore.Hbond>
2.1970

> <Gold.PLP.Chemscore.CHOScore>
0.0000

> <Gold.PLP.Chemscore.Metal>
0.0000

> <Gold.Chemscore.Hbonds>
donor molecule, donor type, donor heavy atom, donor atom, acceptor molecule, acceptor atom, score
      L1  H    24    46       P1   853  0.30
      L1  H    25    47       P1   853  0.29
      P1  H  1247  3847       L1    26  0.61
      P1  H  1931  4507       L1    26  0.99

> <Gold.PLP.Chemscore.Internal.Correction>
0.3488

> <Gold.Protein.RotatedTorsions>
[ 3525  925  924  922 ] final -163.88 input   59.99 | X-H torsion
[ 3781 1176 1175 1172 ] final -104.83 input   60.00 | X-H torsion
[ 4531 1957 1955 1953 ] final   33.75 input   60.00 | X-H torsion
[ 3847 1247 1246 1244 ] final  159.56 input   60.00 | X-H torsion
[ 4507 1931 1930 1928 ] final  -12.57 input   60.00 | X-H torsion
[ 3677 1070 1069 1066 ] final   80.04 input   60.00 | X-H torsion

> <Gold.Protein.ActiveResidues>
 GLY266  PHE267  PRO268  GLU269  MET310  HIS334  ASP335  TRP336  GLY337  GLY338 
 MET339  LEU340  TRP342  TYR343  LEU358  ASN359  THR360  PRO361  ILE363  ALA365 
 MET369  SER370  PRO371  LEU372  GLU373  SER374  ILE375  LYS376  ALA377  ASN378 
 VAL380  PHE381  ASP382  TYR383  GLN384  PHE387  GLN388  LEU397  SER407  LEU408 
 PHE409  ARG410  LEU417  MET419  LEU428  PHE429  PHE459  TRP465  TYR466  ASN468 
 MET469  GLU470  ASN472  TRP473  ALA476  ASP496  PHE497  VAL498  LEU499  MET503 
 HIS524  TRP525 

> <Gold.Protein.RotatedAtoms>
   -2.4015  -30.1829  -29.2101 H   0  0  0  0  0  0  0  0  0  0  0  0  # atno 3525 bound_to 925 
  -12.1659  -22.2696  -30.3596 H   0  0  0  0  0  0  0  0  0  0  0  0  # atno 3677 bound_to 1070
   -9.6326  -36.3601  -33.9319 H   0  0  0  0  0  0  0  0  0  0  0  0  # atno 3781 bound_to 1176
  -14.4541  -27.6957  -37.9389 H   0  0  0  0  0  0  0  0  0  0  0  0  # atno 3847 bound_to 1247
  -13.3833  -25.3643  -39.2400 H   0  0  0  0  0  0  0  0  0  0  0  0  # atno 4507 bound_to 1931
   -3.0881  -32.9914  -36.6536 H   0  0  0  0  0  0  0  0  0  0  0  0  # atno 4531 bound_to 1957
   -2.5714  -29.9647  -30.8137 LP  0  0  0  0  0  0  0  0  0  0  0  0  # atno 5201 bound_to 925 
   -3.7737  -29.5336  -29.7963 LP  0  0  0  0  0  0  0  0  0  0  0  0  # atno 5202 bound_to 925 
   -9.6441  -36.9349  -32.4096 LP  0  0  0  0  0  0  0  0  0  0  0  0  # atno 5205 bound_to 1176
  -10.8369  -37.3417  -33.4481 LP  0  0  0  0  0  0  0  0  0  0  0  0  # atno 5206 bound_to 1176
   -1.5986  -32.3946  -36.9240 LP  0  0  0  0  0  0  0  0  0  0  0  0  # atno 5213 bound_to 1957
   -1.8434  -34.0090  -36.9054 LP  0  0  0  0  0  0  0  0  0  0  0  0  # atno 5214 bound_to 1957
  -15.1368  -28.9646  -37.1828 LP  0  0  0  0  0  0  0  0  0  0  0  0  # atno 5227 bound_to 1247
  -15.9787  -27.5796  -37.3821 LP  0  0  0  0  0  0  0  0  0  0  0  0  # atno 5228 bound_to 1247
  -13.3805  -24.3167  -40.4852 LP  0  0  0  0  0  0  0  0  0  0  0  0  # atno 5245 bound_to 1931
  -12.4287  -24.0476  -39.1858 LP  0  0  0  0  0  0  0  0  0  0  0  0  # atno 5246 bound_to 1931
  -12.5703  -23.7156  -30.9872 LP  0  0  0  0  0  0  0  0  0  0  0  0  # atno 5265 bound_to 1070
  -11.1163  -23.0535  -31.3250 LP  0  0  0  0  0  0  0  0  0  0  0  0  # atno 5266 bound_to 1070

$$$$
Molecule1_Diflapolin|Lisa_paper2_min|sdf|11|dock6
  -GOLD-  10202014433D 1   1.00000     0.00000

 47 50  0  0  0  0  0  0  0  0  1 V2000
   -3.7037  -33.2113  -33.8787 C   0  0  0  0  0  0  0  0  0  0  0  0
   -3.0428  -32.1341  -33.2987 C   0  0  0  0  0  0  0  0  0  0  0  0
   -4.9317  -33.0290  -34.5213 C   0  0  0  0  0  0  0  0  0  0  0  0
  -11.6018  -27.3353  -36.2841 C   0  0  0  0  0  0  0  0  0  0  0  0
  -16.0349  -24.4736  -38.7173 C   0  0  0  0  0  0  0  0  0  0  0  0
  -10.3610  -27.9447  -36.0977 C   0  0  0  0  0  0  0  0  0  0  0  0
   -3.5892  -30.8490  -33.3446 C   0  0  0  0  0  0  0  0  0  0  0  0
  -17.0594  -24.1972  -39.6225 C   0  0  0  0  0  0  0  0  0  0  0  0
  -10.1140  -26.7964  -33.9864 C   0  0  0  0  0  0  0  0  0  0  0  0
  -17.6722  -24.8761  -36.9869 C   0  0  0  0  0  0  0  0  0  0  0  0
  -11.3547  -26.1870  -34.1728 C   0  0  0  0  0  0  0  0  0  0  0  0
   -5.5060  -31.7409  -34.5821 C   0  0  0  0  0  0  0  0  0  0  0  0
  -16.3413  -24.8131  -37.3995 C   0  0  0  0  0  0  0  0  0  0  0  0
  -12.0987  -26.4564  -35.3216 C   0  0  0  0  0  0  0  0  0  0  0  0
   -9.6171  -27.6753  -34.9490 C   0  0  0  0  0  0  0  0  0  0  0  0
   -4.8230  -30.6731  -33.9916 C   0  0  0  0  0  0  0  0  0  0  0  0
  -18.3903  -24.2603  -39.2100 C   0  0  0  0  0  0  0  0  0  0  0  0
  -18.6968  -24.5997  -37.8921 C   0  0  0  0  0  0  0  0  0  0  0  0
   -6.9318  -30.1231  -35.0477 C   0  0  0  0  0  0  0  0  0  0  0  0
  -14.1100  -25.7991  -36.7150 C   0  0  0  0  0  0  0  0  0  0  0  0
  -11.8617  -25.2498  -33.1252 C   0  0  0  0  0  0  0  0  0  0  0  0
   -8.1255  -29.4213  -35.5674 C   0  0  0  0  0  0  0  0  0  0  0  0
   -6.7120  -31.4100  -35.1826 N   0  0  0  0  0  0  0  0  0  0  0  0
  -15.3016  -25.0941  -36.4817 N   0  0  0  0  0  0  0  0  0  0  0  0
  -13.3425  -25.8544  -35.5274 N   0  0  0  0  0  0  0  0  0  0  0  0
  -13.7776  -26.2956  -37.7865 O   0  0  0  0  0  0  0  0  0  0  0  0
   -8.4003  -28.2737  -34.7660 O   0  0  0  0  0  0  0  0  0  0  0  0
   -5.7388  -29.2286  -34.2096 S   0  0  0  0  0  0  0  0  0  0  0  0
  -19.6142  -23.9038  -40.3776 Cl  0  0  0  0  0  0  0  0  0  0  0  0
  -20.3259  -24.6923  -37.3207 Cl  0  0  0  0  0  0  0  0  0  0  0  0
   -3.2633  -34.2035  -33.8328 H   0  0  0  0  0  0  0  0  0  0  0  0
   -2.0888  -32.2920  -32.8026 H   0  0  0  0  0  0  0  0  0  0  0  0
   -5.4386  -33.8776  -34.9719 H   0  0  0  0  0  0  0  0  0  0  0  0
  -12.1721  -27.5523  -37.1840 H   0  0  0  0  0  0  0  0  0  0  0  0
  -15.0011  -24.4231  -39.0495 H   0  0  0  0  0  0  0  0  0  0  0  0
   -9.9796  -28.6289  -36.8509 H   0  0  0  0  0  0  0  0  0  0  0  0
   -3.0668  -30.0125  -32.8905 H   0  0  0  0  0  0  0  0  0  0  0  0
  -16.8022  -23.9358  -40.6459 H   0  0  0  0  0  0  0  0  0  0  0  0
   -9.5315  -26.5880  -33.0922 H   0  0  0  0  0  0  0  0  0  0  0  0
  -17.9049  -25.1403  -35.9572 H   0  0  0  0  0  0  0  0  0  0  0  0
  -11.5325  -24.2269  -33.3403 H   0  0  0  0  0  0  0  0  0  0  0  0
  -12.9575  -25.2627  -33.0796 H   0  0  0  0  0  0  0  0  0  0  0  0
  -11.4968  -25.5335  -32.1306 H   0  0  0  0  0  0  0  0  0  0  0  0
   -7.9869  -29.0858  -36.6092 H   0  0  0  0  0  0  0  0  0  0  0  0
   -9.0179  -30.0697  -35.5578 H   0  0  0  0  0  0  0  0  0  0  0  0
  -15.4337  -24.7420  -35.5369 H   0  0  0  0  0  0  0  0  0  0  0  0
  -13.7639  -25.3892  -34.7175 H   0  0  0  0  0  0  0  0  0  0  0  0
  1  2  2  0  0  0  0
  1  3  1  0  0  0  0
  2  7  1  0  0  0  0
  3 12  2  0  0  0  0
  4  6  2  0  0  0  0
  4 14  1  0  0  0  0
  5  8  2  0  0  0  0
  5 13  1  0  0  0  0
  6 15  1  0  0  0  0
  7 16  2  0  0  0  0
  8 17  1  0  0  0  0
  9 11  1  0  0  0  0
  9 15  2  0  0  0  0
 10 13  2  0  0  0  0
 10 18  1  0  0  0  0
 11 14  2  0  0  0  0
 11 21  1  0  0  0  0
 12 16  1  0  0  0  0
 12 23  1  0  0  0  0
 13 24  1  0  0  0  0
 14 25  1  0  0  0  0
 15 27  1  0  0  0  0
 16 28  1  0  0  0  0
 17 18  2  0  0  0  0
 17 29  1  0  0  0  0
 18 30  1  0  0  0  0
 19 22  1  0  0  0  0
 19 23  2  0  0  0  0
 19 28  1  0  0  0  0
 20 24  1  0  0  0  0
 20 25  1  0  0  0  0
 20 26  2  0  0  0  0
 22 27  1  0  0  0  0
  1 31  1  0  0  0  0
  2 32  1  0  0  0  0
  3 33  1  0  0  0  0
  4 34  1  0  0  0  0
  5 35  1  0  0  0  0
  6 36  1  0  0  0  0
  7 37  1  0  0  0  0
  8 38  1  0  0  0  0
  9 39  1  0  0  0  0
 10 40  1  0  0  0  0
 21 41  1  0  0  0  0
 21 42  1  0  0  0  0
 21 43  1  0  0  0  0
 22 44  1  0  0  0  0
 22 45  1  0  0  0  0
 24 46  1  0  0  0  0
 25 47  1  0  0  0  0
M  END
> <Name>
Molecule1_Diflapolin

> <SourceTag>
Molecule1_Diflapolin

> <Activity_sEH>
23

> <Activity_FLAP>
0.23

> <Gold.Version>
5.2

> <Gold.Id.Protein>
6HGV|6HGV_protein|mol2

> <Gold.PLP.Fitness>
85.3558

> <Gold.PLP.PLP>
-79.1327

> <Gold.PLP.part.hbond>
-7.1293

> <Gold.PLP.part.metal>
0.0000

> <Gold.PLP.part.buried>
7.9572

> <Gold.PLP.part.nonpolar>
-81.8584

> <Gold.PLP.part.repulsive>
0.0571

> <Gold.PLP.ligand.clash>
0.6856

> <Gold.PLP.ligand.torsion>
0.9824

> <Gold.PLP.Chemscore.Hbond>
2.2582

> <Gold.PLP.Chemscore.CHOScore>
0.0000

> <Gold.PLP.Chemscore.Metal>
0.0000

> <Gold.Chemscore.Hbonds>
donor molecule, donor type, donor heavy atom, donor atom, acceptor molecule, acceptor atom, score
      L1  H    24    46       P1   853  0.36
      L1  H    25    47       P1   853  0.28
      P1  H  1247  3847       L1    26  0.63
      P1  H  1931  4507       L1    26  0.98

> <Gold.PLP.Chemscore.Internal.Correction>
0.3488

> <Gold.Protein.RotatedTorsions>
[ 3525  925  924  922 ] final  127.35 input   59.99 | X-H torsion
[ 3781 1176 1175 1172 ] final -163.48 input   60.00 | X-H torsion
[ 4531 1957 1955 1953 ] final  147.15 input   60.00 | X-H torsion
[ 3847 1247 1246 1244 ] final  157.90 input   60.00 | X-H torsion
[ 4507 1931 1930 1928 ] final  -11.77 input   60.00 | X-H torsion
[ 3677 1070 1069 1066 ] final   86.08 input   60.00 | X-H torsion

> <Gold.Protein.ActiveResidues>
 GLY266  PHE267  PRO268  GLU269  MET310  HIS334  ASP335  TRP336  GLY337  GLY338 
 MET339  LEU340  TRP342  TYR343  LEU358  ASN359  THR360  PRO361  ILE363  ALA365 
 MET369  SER370  PRO371  LEU372  GLU373  SER374  ILE375  LYS376  ALA377  ASN378 
 VAL380  PHE381  ASP382  TYR383  GLN384  PHE387  GLN388  LEU397  SER407  LEU408 
 PHE409  ARG410  LEU417  MET419  LEU428  PHE429  PHE459  TRP465  TYR466  ASN468 
 MET469  GLU470  ASN472  TRP473  ALA476  ASP496  PHE497  VAL498  LEU499  MET503 
 HIS524  TRP525 

> <Gold.Protein.RotatedAtoms>
   -2.0857  -30.2284  -30.2182 H   0  0  0  0  0  0  0  0  0  0  0  0  # atno 3525 bound_to 925 
  -12.0770  -22.2338  -30.3829 H   0  0  0  0  0  0  0  0  0  0  0  0  # atno 3677 bound_to 1070
   -9.2422  -36.4098  -33.1037 H   0  0  0  0  0  0  0  0  0  0  0  0  # atno 3781 bound_to 1176
  -14.4404  -27.7188  -37.9354 H   0  0  0  0  0  0  0  0  0  0  0  0  # atno 3847 bound_to 1247
  -13.3757  -25.3621  -39.2297 H   0  0  0  0  0  0  0  0  0  0  0  0  # atno 4507 bound_to 1931
   -1.9470  -34.0364  -36.8886 H   0  0  0  0  0  0  0  0  0  0  0  0  # atno 4531 bound_to 1957
   -3.5302  -29.5686  -30.5735 LP  0  0  0  0  0  0  0  0  0  0  0  0  # atno 5201 bound_to 925 
   -3.1330  -29.8838  -29.0212 LP  0  0  0  0  0  0  0  0  0  0  0  0  # atno 5202 bound_to 925 
  -10.4273  -37.3939  -32.5792 LP  0  0  0  0  0  0  0  0  0  0  0  0  # atno 5205 bound_to 1176
  -10.4469  -36.8327  -34.1126 LP  0  0  0  0  0  0  0  0  0  0  0  0  # atno 5206 bound_to 1176
   -3.0717  -32.8842  -36.6524 LP  0  0  0  0  0  0  0  0  0  0  0  0  # atno 5213 bound_to 1957
   -1.5194  -32.4671  -36.9403 LP  0  0  0  0  0  0  0  0  0  0  0  0  # atno 5214 bound_to 1957
  -15.1624  -28.9623  -37.1736 LP  0  0  0  0  0  0  0  0  0  0  0  0  # atno 5227 bound_to 1247
  -15.9669  -27.5585  -37.3948 LP  0  0  0  0  0  0  0  0  0  0  0  0  # atno 5228 bound_to 1247
  -13.3882  -24.3273  -40.4855 LP  0  0  0  0  0  0  0  0  0  0  0  0  # atno 5245 bound_to 1931
  -12.4287  -24.0392  -39.1959 LP  0  0  0  0  0  0  0  0  0  0  0  0  # atno 5246 bound_to 1931
  -12.6308  -23.6637  -30.9279 LP  0  0  0  0  0  0  0  0  0  0  0  0  # atno 5265 bound_to 1070
  -11.1454  -23.1415  -31.3608 LP  0  0  0  0  0  0  0  0  0  0  0  0  # atno 5266 bound_to 1070

$$$$
Molecule1_Diflapolin|Lisa_paper2_min|sdf|11|dock8
  -GOLD-  10202014443D 1   1.00000     0.00000

 47 50  0  0  0  0  0  0  0  0  1 V2000
   -3.6576  -33.1151  -33.8435 C   0  0  0  0  0  0  0  0  0  0  0  0
   -3.0371  -32.0895  -33.1386 C   0  0  0  0  0  0  0  0  0  0  0  0
   -4.8384  -32.8765  -34.5526 C   0  0  0  0  0  0  0  0  0  0  0  0
  -11.7360  -27.6624  -35.9504 C   0  0  0  0  0  0  0  0  0  0  0  0
  -17.8531  -25.3683  -36.7904 C   0  0  0  0  0  0  0  0  0  0  0  0
  -10.4445  -28.1648  -35.7907 C   0  0  0  0  0  0  0  0  0  0  0  0
   -3.5780  -30.8014  -33.1227 C   0  0  0  0  0  0  0  0  0  0  0  0
  -18.8559  -25.0267  -37.6977 C   0  0  0  0  0  0  0  0  0  0  0  0
  -10.1185  -26.7200  -33.8819 C   0  0  0  0  0  0  0  0  0  0  0  0
  -16.1809  -24.5516  -38.3311 C   0  0  0  0  0  0  0  0  0  0  0  0
  -11.4098  -26.2176  -34.0416 C   0  0  0  0  0  0  0  0  0  0  0  0
   -5.4061  -31.5840  -34.5533 C   0  0  0  0  0  0  0  0  0  0  0  0
  -16.5156  -25.1307  -37.1071 C   0  0  0  0  0  0  0  0  0  0  0  0
  -12.2187  -26.6887  -35.0758 C   0  0  0  0  0  0  0  0  0  0  0  0
   -9.6358  -27.6936  -34.7565 C   0  0  0  0  0  0  0  0  0  0  0  0
   -4.7643  -30.5689  -33.8371 C   0  0  0  0  0  0  0  0  0  0  0  0
  -18.5213  -24.4476  -38.9217 C   0  0  0  0  0  0  0  0  0  0  0  0
  -17.1837  -24.2100  -39.2384 C   0  0  0  0  0  0  0  0  0  0  0  0
   -6.7951  -29.9266  -34.9895 C   0  0  0  0  0  0  0  0  0  0  0  0
  -14.2197  -25.9860  -36.4619 C   0  0  0  0  0  0  0  0  0  0  0  0
  -11.9002  -25.1751  -33.0900 C   0  0  0  0  0  0  0  0  0  0  0  0
   -7.9498  -29.1797  -35.5340 C   0  0  0  0  0  0  0  0  0  0  0  0
   -6.5677  -31.2007  -35.2076 N   0  0  0  0  0  0  0  0  0  0  0  0
  -15.4987  -25.4768  -36.1861 N   0  0  0  0  0  0  0  0  0  0  0  0
  -13.5140  -26.1966  -35.2534 N   0  0  0  0  0  0  0  0  0  0  0  0
  -13.7739  -26.2161  -37.5814 O   0  0  0  0  0  0  0  0  0  0  0  0
   -8.3693  -28.1870  -34.5995 O   0  0  0  0  0  0  0  0  0  0  0  0
   -5.6617  -29.1063  -34.0055 S   0  0  0  0  0  0  0  0  0  0  0  0
  -19.8089  -24.0499  -40.0044 Cl  0  0  0  0  0  0  0  0  0  0  0  0
  -16.7060  -23.4974  -40.7395 Cl  0  0  0  0  0  0  0  0  0  0  0  0
   -3.2222  -34.1106  -33.8440 H   0  0  0  0  0  0  0  0  0  0  0  0
   -2.1196  -32.2909  -32.5920 H   0  0  0  0  0  0  0  0  0  0  0  0
   -5.3139  -33.6850  -35.1007 H   0  0  0  0  0  0  0  0  0  0  0  0
  -12.3567  -28.0365  -36.7608 H   0  0  0  0  0  0  0  0  0  0  0  0
  -18.1249  -25.8178  -35.8387 H   0  0  0  0  0  0  0  0  0  0  0  0
  -10.0745  -28.9235  -36.4749 H   0  0  0  0  0  0  0  0  0  0  0  0
   -3.0872  -30.0055  -32.5711 H   0  0  0  0  0  0  0  0  0  0  0  0
  -19.8931  -25.2178  -37.4336 H   0  0  0  0  0  0  0  0  0  0  0  0
   -9.4854  -26.3544  -33.0770 H   0  0  0  0  0  0  0  0  0  0  0  0
  -15.1356  -24.3698  -38.5730 H   0  0  0  0  0  0  0  0  0  0  0  0
  -11.6616  -24.1745  -33.4680 H   0  0  0  0  0  0  0  0  0  0  0  0
  -12.9855  -25.2468  -32.9494 H   0  0  0  0  0  0  0  0  0  0  0  0
  -11.4409  -25.2948  -32.1012 H   0  0  0  0  0  0  0  0  0  0  0  0
   -7.7044  -28.6740  -36.4834 H   0  0  0  0  0  0  0  0  0  0  0  0
   -8.8066  -29.8435  -35.7392 H   0  0  0  0  0  0  0  0  0  0  0  0
  -15.7218  -25.3397  -35.2035 H   0  0  0  0  0  0  0  0  0  0  0  0
  -14.0305  -25.9536  -34.4024 H   0  0  0  0  0  0  0  0  0  0  0  0
  1  2  2  0  0  0  0
  1  3  1  0  0  0  0
  2  7  1  0  0  0  0
  3 12  2  0  0  0  0
  4  6  2  0  0  0  0
  4 14  1  0  0  0  0
  5  8  2  0  0  0  0
  5 13  1  0  0  0  0
  6 15  1  0  0  0  0
  7 16  2  0  0  0  0
  8 17  1  0  0  0  0
  9 11  1  0  0  0  0
  9 15  2  0  0  0  0
 10 13  2  0  0  0  0
 10 18  1  0  0  0  0
 11 14  2  0  0  0  0
 11 21  1  0  0  0  0
 12 16  1  0  0  0  0
 12 23  1  0  0  0  0
 13 24  1  0  0  0  0
 14 25  1  0  0  0  0
 15 27  1  0  0  0  0
 16 28  1  0  0  0  0
 17 18  2  0  0  0  0
 17 29  1  0  0  0  0
 18 30  1  0  0  0  0
 19 22  1  0  0  0  0
 19 23  2  0  0  0  0
 19 28  1  0  0  0  0
 20 24  1  0  0  0  0
 20 25  1  0  0  0  0
 20 26  2  0  0  0  0
 22 27  1  0  0  0  0
  1 31  1  0  0  0  0
  2 32  1  0  0  0  0
  3 33  1  0  0  0  0
  4 34  1  0  0  0  0
  5 35  1  0  0  0  0
  6 36  1  0  0  0  0
  7 37  1  0  0  0  0
  8 38  1  0  0  0  0
  9 39  1  0  0  0  0
 10 40  1  0  0  0  0
 21 41  1  0  0  0  0
 21 42  1  0  0  0  0
 21 43  1  0  0  0  0
 22 44  1  0  0  0  0
 22 45  1  0  0  0  0
 24 46  1  0  0  0  0
 25 47  1  0  0  0  0
M  END
> <Name>
Molecule1_Diflapolin

> <SourceTag>
Molecule1_Diflapolin

> <Activity_sEH>
23

> <Activity_FLAP>
0.23

> <Gold.Version>
5.2

> <Gold.Id.Protein>
6HGV|6HGV_protein|mol2

> <Gold.PLP.Fitness>
83.8204

> <Gold.PLP.PLP>
-81.5269

> <Gold.PLP.part.hbond>
-8.1338

> <Gold.PLP.part.metal>
0.0000

> <Gold.PLP.part.buried>
7.3256

> <Gold.PLP.part.nonpolar>
-82.5317

> <Gold.PLP.part.repulsive>
0.0708

> <Gold.PLP.ligand.clash>
1.6045

> <Gold.PLP.ligand.torsion>
0.9529

> <Gold.PLP.Chemscore.Hbond>
1.3479

> <Gold.PLP.Chemscore.CHOScore>
0.0000

> <Gold.PLP.Chemscore.Metal>
0.0000

> <Gold.Chemscore.Hbonds>
donor molecule, donor type, donor heavy atom, donor atom, acceptor molecule, acceptor atom, score
      L1  H    24    46       P1   853  0.02
      P1  H  1247  3847       L1    26  0.33
      P1  H  1931  4507       L1    26  1.00

> <Gold.PLP.Chemscore.Internal.Correction>
0.3488

> <Gold.Protein.RotatedTorsions>
[ 3525  925  924  922 ] final   32.62 input   59.99 | X-H torsion
[ 3781 1176 1175 1172 ] final  176.60 input   60.00 | X-H torsion
[ 4531 1957 1955 1953 ] final  107.38 input   60.00 | X-H torsion
[ 3847 1247 1246 1244 ] final  155.84 input   60.00 | X-H torsion
[ 4507 1931 1930 1928 ] final    6.73 input   60.00 | X-H torsion
[ 3677 1070 1069 1066 ] final -157.65 input   60.00 | X-H torsion

> <Gold.Protein.ActiveResidues>
 GLY266  PHE267  PRO268  GLU269  MET310  HIS334  ASP335  TRP336  GLY337  GLY338 
 MET339  LEU340  TRP342  TYR343  LEU358  ASN359  THR360  PRO361  ILE363  ALA365 
 MET369  SER370  PRO371  LEU372  GLU373  SER374  ILE375  LYS376  ALA377  ASN378 
 VAL380  PHE381  ASP382  TYR383  GLN384  PHE387  GLN388  LEU397  SER407  LEU408 
 PHE409  ARG410  LEU417  MET419  LEU428  PHE429  PHE459  TRP465  TYR466  ASN468 
 MET469  GLU470  ASN472  TRP473  ALA476  ASP496  PHE497  VAL498  LEU499  MET503 
 HIS524  TRP525 

> <Gold.Protein.RotatedAtoms>
   -3.2090  -29.6852  -30.8019 H   0  0  0  0  0  0  0  0  0  0  0  0  # atno 3525 bound_to 925 
  -11.1312  -23.0879  -31.3343 H   0  0  0  0  0  0  0  0  0  0  0  0  # atno 3677 bound_to 1070
   -9.2858  -36.5475  -32.8138 H   0  0  0  0  0  0  0  0  0  0  0  0  # atno 3781 bound_to 1176
  -14.4243  -27.7479  -37.9306 H   0  0  0  0  0  0  0  0  0  0  0  0  # atno 3847 bound_to 1247
  -13.1849  -25.2692  -39.0161 H   0  0  0  0  0  0  0  0  0  0  0  0  # atno 4507 bound_to 1931
   -2.5701  -33.9800  -36.7691 H   0  0  0  0  0  0  0  0  0  0  0  0  # atno 4531 bound_to 1957
   -3.4692  -29.7212  -29.1960 LP  0  0  0  0  0  0  0  0  0  0  0  0  # atno 5201 bound_to 925 
   -2.0627  -30.2782  -29.8108 LP  0  0  0  0  0  0  0  0  0  0  0  0  # atno 5202 bound_to 925 
  -10.6418  -37.4472  -32.8191 LP  0  0  0  0  0  0  0  0  0  0  0  0  # atno 5205 bound_to 1176
  -10.1884  -36.6407  -34.1646 LP  0  0  0  0  0  0  0  0  0  0  0  0  # atno 5206 bound_to 1176
   -2.7078  -32.3594  -36.7125 LP  0  0  0  0  0  0  0  0  0  0  0  0  # atno 5213 bound_to 1957
   -1.2557  -33.0487  -37.0005 LP  0  0  0  0  0  0  0  0  0  0  0  0  # atno 5214 bound_to 1957
  -15.1942  -28.9585  -37.1626 LP  0  0  0  0  0  0  0  0  0  0  0  0  # atno 5227 bound_to 1247
  -15.9513  -27.5331  -37.4107 LP  0  0  0  0  0  0  0  0  0  0  0  0  # atno 5228 bound_to 1247
  -13.5458  -24.5835  -40.4470 LP  0  0  0  0  0  0  0  0  0  0  0  0  # atno 5245 bound_to 1931
  -12.4632  -23.8766  -39.4495 LP  0  0  0  0  0  0  0  0  0  0  0  0  # atno 5246 bound_to 1931
  -12.1343  -22.2485  -30.3661 LP  0  0  0  0  0  0  0  0  0  0  0  0  # atno 5265 bound_to 1070
  -12.5944  -23.6965  -30.9645 LP  0  0  0  0  0  0  0  0  0  0  0  0  # atno 5266 bound_to 1070

$$$$
Molecule1_Diflapolin|Lisa_paper2_min|sdf|11|dock9
  -GOLD-  10202014443D 1   1.00000     0.00000

 47 50  0  0  0  0  0  0  0  0  1 V2000
   -6.1383  -33.3671  -35.5032 C   0  0  0  0  0  0  0  0  0  0  0  0
   -7.0350  -33.8547  -36.4476 C   0  0  0  0  0  0  0  0  0  0  0  0
   -6.5919  -32.6200  -34.4122 C   0  0  0  0  0  0  0  0  0  0  0  0
  -12.9503  -28.2970  -34.9098 C   0  0  0  0  0  0  0  0  0  0  0  0
  -17.0905  -25.2632  -37.4573 C   0  0  0  0  0  0  0  0  0  0  0  0
  -12.3147  -29.1201  -33.9802 C   0  0  0  0  0  0  0  0  0  0  0  0
   -8.4054  -33.6098  -36.3282 C   0  0  0  0  0  0  0  0  0  0  0  0
  -18.3108  -24.8547  -37.9954 C   0  0  0  0  0  0  0  0  0  0  0  0
  -10.5721  -27.4688  -33.7093 C   0  0  0  0  0  0  0  0  0  0  0  0
  -15.9217  -23.8949  -39.0694 C   0  0  0  0  0  0  0  0  0  0  0  0
  -11.2076  -26.6457  -34.6389 C   0  0  0  0  0  0  0  0  0  0  0  0
   -7.9715  -32.3580  -34.2677 C   0  0  0  0  0  0  0  0  0  0  0  0
  -15.8959  -24.7833  -37.9943 C   0  0  0  0  0  0  0  0  0  0  0  0
  -12.3967  -27.0597  -35.2392 C   0  0  0  0  0  0  0  0  0  0  0  0
  -11.1256  -28.7061  -33.3800 C   0  0  0  0  0  0  0  0  0  0  0  0
   -8.8540  -32.8585  -35.2300 C   0  0  0  0  0  0  0  0  0  0  0  0
  -18.3366  -23.9664  -39.0703 C   0  0  0  0  0  0  0  0  0  0  0  0
  -17.1420  -23.4864  -39.6074 C   0  0  0  0  0  0  0  0  0  0  0  0
   -9.8629  -31.5927  -33.4287 C   0  0  0  0  0  0  0  0  0  0  0  0
  -14.4356  -26.1241  -36.4167 C   0  0  0  0  0  0  0  0  0  0  0  0
  -10.5915  -25.3258  -34.9724 C   0  0  0  0  0  0  0  0  0  0  0  0
  -10.8130  -30.9043  -32.5281 C   0  0  0  0  0  0  0  0  0  0  0  0
   -8.5644  -31.6352  -33.2428 N   0  0  0  0  0  0  0  0  0  0  0  0
  -14.6582  -25.1974  -37.4477 N   0  0  0  0  0  0  0  0  0  0  0  0
  -13.0472  -26.2504  -36.1739 N   0  0  0  0  0  0  0  0  0  0  0  0
  -15.3100  -26.7366  -35.8123 O   0  0  0  0  0  0  0  0  0  0  0  0
  -10.5026  -29.5134  -32.4677 O   0  0  0  0  0  0  0  0  0  0  0  0
  -10.4623  -32.3964  -34.8146 S   0  0  0  0  0  0  0  0  0  0  0  0
  -19.8799  -23.5005  -39.6945 Cl  0  0  0  0  0  0  0  0  0  0  0  0
  -17.1089  -22.3858  -40.9403 Cl  0  0  0  0  0  0  0  0  0  0  0  0
   -5.0761  -33.5676  -35.6128 H   0  0  0  0  0  0  0  0  0  0  0  0
   -6.6668  -34.4339  -37.2903 H   0  0  0  0  0  0  0  0  0  0  0  0
   -5.8825  -32.2449  -33.6800 H   0  0  0  0  0  0  0  0  0  0  0  0
  -13.8761  -28.6308  -35.3718 H   0  0  0  0  0  0  0  0  0  0  0  0
  -17.0816  -25.9548  -36.6186 H   0  0  0  0  0  0  0  0  0  0  0  0
  -12.7512  -30.0827  -33.7275 H   0  0  0  0  0  0  0  0  0  0  0  0
   -9.0995  -33.9948  -37.0689 H   0  0  0  0  0  0  0  0  0  0  0  0
  -19.2320  -25.2378  -37.5632 H   0  0  0  0  0  0  0  0  0  0  0  0
   -9.6447  -27.1491  -33.2401 H   0  0  0  0  0  0  0  0  0  0  0  0
  -14.9864  -23.5249  -39.4848 H   0  0  0  0  0  0  0  0  0  0  0  0
   -9.8990  -25.4328  -35.8150 H   0  0  0  0  0  0  0  0  0  0  0  0
  -11.3576  -24.5880  -35.2402 H   0  0  0  0  0  0  0  0  0  0  0  0
  -10.0408  -24.9186  -34.1158 H   0  0  0  0  0  0  0  0  0  0  0  0
  -11.8564  -31.0075  -32.8712 H   0  0  0  0  0  0  0  0  0  0  0  0
  -10.7732  -31.3108  -31.5034 H   0  0  0  0  0  0  0  0  0  0  0  0
  -13.8278  -24.7714  -37.8514 H   0  0  0  0  0  0  0  0  0  0  0  0
  -12.4491  -25.6666  -36.7667 H   0  0  0  0  0  0  0  0  0  0  0  0
  1  2  2  0  0  0  0
  1  3  1  0  0  0  0
  2  7  1  0  0  0  0
  3 12  2  0  0  0  0
  4  6  2  0  0  0  0
  4 14  1  0  0  0  0
  5  8  2  0  0  0  0
  5 13  1  0  0  0  0
  6 15  1  0  0  0  0
  7 16  2  0  0  0  0
  8 17  1  0  0  0  0
  9 11  1  0  0  0  0
  9 15  2  0  0  0  0
 10 13  2  0  0  0  0
 10 18  1  0  0  0  0
 11 14  2  0  0  0  0
 11 21  1  0  0  0  0
 12 16  1  0  0  0  0
 12 23  1  0  0  0  0
 13 24  1  0  0  0  0
 14 25  1  0  0  0  0
 15 27  1  0  0  0  0
 16 28  1  0  0  0  0
 17 18  2  0  0  0  0
 17 29  1  0  0  0  0
 18 30  1  0  0  0  0
 19 22  1  0  0  0  0
 19 23  2  0  0  0  0
 19 28  1  0  0  0  0
 20 24  1  0  0  0  0
 20 25  1  0  0  0  0
 20 26  2  0  0  0  0
 22 27  1  0  0  0  0
  1 31  1  0  0  0  0
  2 32  1  0  0  0  0
  3 33  1  0  0  0  0
  4 34  1  0  0  0  0
  5 35  1  0  0  0  0
  6 36  1  0  0  0  0
  7 37  1  0  0  0  0
  8 38  1  0  0  0  0
  9 39  1  0  0  0  0
 10 40  1  0  0  0  0
 21 41  1  0  0  0  0
 21 42  1  0  0  0  0
 21 43  1  0  0  0  0
 22 44  1  0  0  0  0
 22 45  1  0  0  0  0
 24 46  1  0  0  0  0
 25 47  1  0  0  0  0
M  END
> <Name>
Molecule1_Diflapolin

> <SourceTag>
Molecule1_Diflapolin

> <Activity_sEH>
23

> <Activity_FLAP>
0.23

> <Gold.Version>
5.2

> <Gold.Id.Protein>
6HGV|6HGV_protein|mol2

> <Gold.PLP.Fitness>
82.4160

> <Gold.PLP.PLP>
-79.9225

> <Gold.PLP.part.hbond>
-6.8607

> <Gold.PLP.part.metal>
0.0000

> <Gold.PLP.part.buried>
3.5529

> <Gold.PLP.part.nonpolar>
-76.8947

> <Gold.PLP.part.repulsive>
0.0673

> <Gold.PLP.ligand.clash>
0.1013

> <Gold.PLP.ligand.torsion>
0.7312

> <Gold.PLP.Chemscore.Hbond>
0.8914

> <Gold.PLP.Chemscore.CHOScore>
0.0000

> <Gold.PLP.Chemscore.Metal>
0.0000

> <Gold.Chemscore.Hbonds>
donor molecule, donor type, donor heavy atom, donor atom, acceptor molecule, acceptor atom, score
      L1  H    24    46       P1  1931  0.67
      P1  H  1247  3847       L1    26  0.22

> <Gold.PLP.Chemscore.Internal.Correction>
0.3488

> <Gold.Protein.RotatedTorsions>
[ 3525  925  924  922 ] final  -58.31 input   59.99 | X-H torsion
[ 3781 1176 1175 1172 ] final  163.09 input   60.00 | X-H torsion
[ 4531 1957 1955 1953 ] final -165.87 input   60.00 | X-H torsion
[ 3847 1247 1246 1244 ] final  -44.08 input   60.00 | X-H torsion
[ 4507 1931 1930 1928 ] final -164.34 input   60.00 | X-H torsion
[ 3677 1070 1069 1066 ] final  156.15 input   60.00 | X-H torsion

> <Gold.Protein.ActiveResidues>
 GLY266  PHE267  PRO268  GLU269  MET310  HIS334  ASP335  TRP336  GLY337  GLY338 
 MET339  LEU340  TRP342  TYR343  LEU358  ASN359  THR360  PRO361  ILE363  ALA365 
 MET369  SER370  PRO371  LEU372  GLU373  SER374  ILE375  LYS376  ALA377  ASN378 
 VAL380  PHE381  ASP382  TYR383  GLN384  PHE387  GLN388  LEU397  SER407  LEU408 
 PHE409  ARG410  LEU417  MET419  LEU428  PHE429  PHE459  TRP465  TYR466  ASN468 
 MET469  GLU470  ASN472  TRP473  ALA476  ASP496  PHE497  VAL498  LEU499  MET503 
 HIS524  TRP525 

> <Gold.Protein.RotatedAtoms>
   -3.7152  -29.5771  -29.5717 H   0  0  0  0  0  0  0  0  0  0  0  0  # atno 3525 bound_to 925 
  -11.1931  -22.4653  -30.9493 H   0  0  0  0  0  0  0  0  0  0  0  0  # atno 3677 bound_to 1070
   -9.3673  -36.6647  -32.6461 H   0  0  0  0  0  0  0  0  0  0  0  0  # atno 3781 bound_to 1176
  -16.0552  -28.1129  -37.1508 H   0  0  0  0  0  0  0  0  0  0  0  0  # atno 3847 bound_to 1247
  -13.0404  -23.9598  -40.3387 H   0  0  0  0  0  0  0  0  0  0  0  0  # atno 4507 bound_to 1931
   -1.3700  -33.5739  -36.9903 H   0  0  0  0  0  0  0  0  0  0  0  0  # atno 4531 bound_to 1957
   -2.2421  -30.2398  -29.3746 LP  0  0  0  0  0  0  0  0  0  0  0  0  # atno 5201 bound_to 925 
   -2.7800  -29.8685  -30.8711 LP  0  0  0  0  0  0  0  0  0  0  0  0  # atno 5202 bound_to 925 
  -10.7473  -37.4446  -33.0140 LP  0  0  0  0  0  0  0  0  0  0  0  0  # atno 5205 bound_to 1176
  -10.0009  -36.5254  -34.1385 LP  0  0  0  0  0  0  0  0  0  0  0  0  # atno 5206 bound_to 1176
   -2.9675  -33.6279  -36.6851 LP  0  0  0  0  0  0  0  0  0  0  0  0  # atno 5213 bound_to 1957
   -2.2046  -32.1892  -36.8053 LP  0  0  0  0  0  0  0  0  0  0  0  0  # atno 5214 bound_to 1957
  -14.8802  -27.2934  -37.9228 LP  0  0  0  0  0  0  0  0  0  0  0  0  # atno 5227 bound_to 1247
  -14.6228  -28.8306  -37.4357 LP  0  0  0  0  0  0  0  0  0  0  0  0  # atno 5228 bound_to 1247
  -12.5262  -24.4468  -38.8736 LP  0  0  0  0  0  0  0  0  0  0  0  0  # atno 5245 bound_to 1931
  -13.6284  -25.3319  -39.6910 LP  0  0  0  0  0  0  0  0  0  0  0  0  # atno 5246 bound_to 1931
  -12.6898  -22.7371  -30.3712 LP  0  0  0  0  0  0  0  0  0  0  0  0  # atno 5265 bound_to 1070
  -11.9765  -23.8350  -31.3471 LP  0  0  0  0  0  0  0  0  0  0  0  0  # atno 5266 bound_to 1070

$$$$
Molecule1_Diflapolin|Lisa_paper2_min|sdf|11|dock5
  -GOLD-  10202014433D 1   1.00000     0.00000

 47 50  0  0  0  0  0  0  0  0  1 V2000
   -5.4269  -34.6782  -33.9673 C   0  0  0  0  0  0  0  0  0  0  0  0
   -4.1522  -34.1229  -33.9480 C   0  0  0  0  0  0  0  0  0  0  0  0
   -6.5311  -33.9092  -34.3464 C   0  0  0  0  0  0  0  0  0  0  0  0
  -11.4664  -27.8806  -35.9250 C   0  0  0  0  0  0  0  0  0  0  0  0
  -15.7677  -24.6856  -38.4419 C   0  0  0  0  0  0  0  0  0  0  0  0
  -10.2278  -28.5029  -35.7697 C   0  0  0  0  0  0  0  0  0  0  0  0
   -3.9463  -32.7881  -34.3058 C   0  0  0  0  0  0  0  0  0  0  0  0
  -16.8055  -24.3843  -39.3238 C   0  0  0  0  0  0  0  0  0  0  0  0
   -9.6266  -26.8848  -34.0794 C   0  0  0  0  0  0  0  0  0  0  0  0
  -17.3788  -25.1223  -36.6953 C   0  0  0  0  0  0  0  0  0  0  0  0
  -10.8651  -26.2624  -34.2347 C   0  0  0  0  0  0  0  0  0  0  0  0
   -6.3510  -32.5578  -34.7126 C   0  0  0  0  0  0  0  0  0  0  0  0
  -16.0544  -25.0546  -37.1276 C   0  0  0  0  0  0  0  0  0  0  0  0
  -11.7851  -26.7603  -35.1575 C   0  0  0  0  0  0  0  0  0  0  0  0
   -9.3078  -28.0051  -34.8470 C   0  0  0  0  0  0  0  0  0  0  0  0
   -5.0599  -32.0215  -34.6855 C   0  0  0  0  0  0  0  0  0  0  0  0
  -18.1298  -24.4520  -38.8916 C   0  0  0  0  0  0  0  0  0  0  0  0
  -18.4166  -24.8210  -37.5772 C   0  0  0  0  0  0  0  0  0  0  0  0
   -6.8187  -30.5056  -35.3736 C   0  0  0  0  0  0  0  0  0  0  0  0
  -13.8159  -26.0635  -36.5026 C   0  0  0  0  0  0  0  0  0  0  0  0
  -11.1791  -25.0640  -33.3992 C   0  0  0  0  0  0  0  0  0  0  0  0
   -7.5882  -29.3256  -35.8240 C   0  0  0  0  0  0  0  0  0  0  0  0
   -7.3473  -31.6774  -35.1085 N   0  0  0  0  0  0  0  0  0  0  0  0
  -15.0013  -25.3608  -36.2335 N   0  0  0  0  0  0  0  0  0  0  0  0
  -13.0300  -26.1498  -35.3289 N   0  0  0  0  0  0  0  0  0  0  0  0
  -13.5022  -26.5349  -37.5908 O   0  0  0  0  0  0  0  0  0  0  0  0
   -8.0931  -28.6160  -34.6943 O   0  0  0  0  0  0  0  0  0  0  0  0
   -5.1254  -30.3691  -35.1734 S   0  0  0  0  0  0  0  0  0  0  0  0
  -19.3707  -24.0638  -40.0308 Cl  0  0  0  0  0  0  0  0  0  0  0  0
  -20.0367  -24.9208  -36.9820 Cl  0  0  0  0  0  0  0  0  0  0  0  0
   -5.5675  -35.7181  -33.6856 H   0  0  0  0  0  0  0  0  0  0  0  0
   -3.3038  -34.7337  -33.6508 H   0  0  0  0  0  0  0  0  0  0  0  0
   -7.5222  -34.3537  -34.3588 H   0  0  0  0  0  0  0  0  0  0  0  0
  -12.1749  -28.2771  -36.6481 H   0  0  0  0  0  0  0  0  0  0  0  0
  -14.7391  -24.6311  -38.7894 H   0  0  0  0  0  0  0  0  0  0  0  0
   -9.9856  -29.3756  -36.3702 H   0  0  0  0  0  0  0  0  0  0  0  0
   -2.9480  -32.3619  -34.2895 H   0  0  0  0  0  0  0  0  0  0  0  0
  -16.5636  -24.1000  -40.3449 H   0  0  0  0  0  0  0  0  0  0  0  0
   -8.9070  -26.4987  -33.3613 H   0  0  0  0  0  0  0  0  0  0  0  0
  -17.5961  -25.4096  -35.6684 H   0  0  0  0  0  0  0  0  0  0  0  0
  -10.8612  -24.1498  -33.9131 H   0  0  0  0  0  0  0  0  0  0  0  0
  -12.2544  -24.9950  -33.1947 H   0  0  0  0  0  0  0  0  0  0  0  0
  -10.6715  -25.1148  -32.4282 H   0  0  0  0  0  0  0  0  0  0  0  0
   -6.9694  -28.6302  -36.4163 H   0  0  0  0  0  0  0  0  0  0  0  0
   -8.4423  -29.6125  -36.4604 H   0  0  0  0  0  0  0  0  0  0  0  0
  -15.1174  -25.0313  -35.2785 H   0  0  0  0  0  0  0  0  0  0  0  0
  -13.4370  -25.7030  -34.5014 H   0  0  0  0  0  0  0  0  0  0  0  0
  1  2  2  0  0  0  0
  1  3  1  0  0  0  0
  2  7  1  0  0  0  0
  3 12  2  0  0  0  0
  4  6  2  0  0  0  0
  4 14  1  0  0  0  0
  5  8  2  0  0  0  0
  5 13  1  0  0  0  0
  6 15  1  0  0  0  0
  7 16  2  0  0  0  0
  8 17  1  0  0  0  0
  9 11  1  0  0  0  0
  9 15  2  0  0  0  0
 10 13  2  0  0  0  0
 10 18  1  0  0  0  0
 11 14  2  0  0  0  0
 11 21  1  0  0  0  0
 12 16  1  0  0  0  0
 12 23  1  0  0  0  0
 13 24  1  0  0  0  0
 14 25  1  0  0  0  0
 15 27  1  0  0  0  0
 16 28  1  0  0  0  0
 17 18  2  0  0  0  0
 17 29  1  0  0  0  0
 18 30  1  0  0  0  0
 19 22  1  0  0  0  0
 19 23  2  0  0  0  0
 19 28  1  0  0  0  0
 20 24  1  0  0  0  0
 20 25  1  0  0  0  0
 20 26  2  0  0  0  0
 22 27  1  0  0  0  0
  1 31  1  0  0  0  0
  2 32  1  0  0  0  0
  3 33  1  0  0  0  0
  4 34  1  0  0  0  0
  5 35  1  0  0  0  0
  6 36  1  0  0  0  0
  7 37  1  0  0  0  0
  8 38  1  0  0  0  0
  9 39  1  0  0  0  0
 10 40  1  0  0  0  0
 21 41  1  0  0  0  0
 21 42  1  0  0  0  0
 21 43  1  0  0  0  0
 22 44  1  0  0  0  0
 22 45  1  0  0  0  0
 24 46  1  0  0  0  0
 25 47  1  0  0  0  0
M  END
> <Name>
Molecule1_Diflapolin

> <SourceTag>
Molecule1_Diflapolin

> <Activity_sEH>
23

> <Activity_FLAP>
0.23

> <Gold.Version>
5.2

> <Gold.Id.Protein>
6HGV|6HGV_protein|mol2

> <Gold.PLP.Fitness>
81.4413

> <Gold.PLP.PLP>
-75.5462

> <Gold.PLP.part.hbond>
-6.8166

> <Gold.PLP.part.metal>
0.0000

> <Gold.PLP.part.buried>
9.3303

> <Gold.PLP.part.nonpolar>
-79.4682

> <Gold.PLP.part.repulsive>
0.0513

> <Gold.PLP.ligand.clash>
0.0000

> <Gold.PLP.ligand.torsion>
1.4492

> <Gold.PLP.Chemscore.Hbond>
2.0944

> <Gold.PLP.Chemscore.CHOScore>
0.0000

> <Gold.PLP.Chemscore.Metal>
0.0000

> <Gold.Chemscore.Hbonds>
donor molecule, donor type, donor heavy atom, donor atom, acceptor molecule, acceptor atom, score
      L1  H    24    46       P1   853  0.31
      L1  H    25    47       P1   853  0.07
      P1  H  1256  3855       L1    26  0.08
      P1  H  1247  3847       L1    26  0.67
      P1  H  1931  4507       L1    26  0.96

> <Gold.PLP.Chemscore.Internal.Correction>
0.3488

> <Gold.Protein.RotatedTorsions>
[ 3525  925  924  922 ] final   45.27 input   59.99 | X-H torsion
[ 3781 1176 1175 1172 ] final   89.56 input   60.00 | X-H torsion
[ 4531 1957 1955 1953 ] final  109.30 input   60.00 | X-H torsion
[ 3847 1247 1246 1244 ] final  158.47 input   60.00 | X-H torsion
[ 4507 1931 1930 1928 ] final   -4.04 input   60.00 | X-H torsion
[ 3677 1070 1069 1066 ] final  130.35 input   60.00 | X-H torsion

> <Gold.Protein.ActiveResidues>
 GLY266  PHE267  PRO268  GLU269  MET310  HIS334  ASP335  TRP336  GLY337  GLY338 
 MET339  LEU340  TRP342  TYR343  LEU358  ASN359  THR360  PRO361  ILE363  ALA365 
 MET369  SER370  PRO371  LEU372  GLU373  SER374  ILE375  LYS376  ALA377  ASN378 
 VAL380  PHE381  ASP382  TYR383  GLN384  PHE387  GLN388  LEU397  SER407  LEU408 
 PHE409  ARG410  LEU417  MET419  LEU428  PHE429  PHE459  TRP465  TYR466  ASN468 
 MET469  GLU470  ASN472  TRP473  ALA476  ASP496  PHE497  VAL498  LEU499  MET503 
 HIS524  TRP525 

> <Gold.Protein.RotatedAtoms>
   -3.0253  -29.7602  -30.8582 H   0  0  0  0  0  0  0  0  0  0  0  0  # atno 3525 bound_to 925 
  -11.4467  -22.2458  -30.6996 H   0  0  0  0  0  0  0  0  0  0  0  0  # atno 3677 bound_to 1070
  -10.2569  -37.3236  -32.4715 H   0  0  0  0  0  0  0  0  0  0  0  0  # atno 3781 bound_to 1176
  -14.4450  -27.7108  -37.9366 H   0  0  0  0  0  0  0  0  0  0  0  0  # atno 3847 bound_to 1247
  -13.2988  -25.3327  -39.1339 H   0  0  0  0  0  0  0  0  0  0  0  0  # atno 4507 bound_to 1931
   -2.5419  -33.9928  -36.7747 H   0  0  0  0  0  0  0  0  0  0  0  0  # atno 4531 bound_to 1957
   -3.6011  -29.6506  -29.3401 LP  0  0  0  0  0  0  0  0  0  0  0  0  # atno 5201 bound_to 925 
   -2.1158  -30.2734  -29.6101 LP  0  0  0  0  0  0  0  0  0  0  0  0  # atno 5202 bound_to 925 
  -10.5913  -36.9627  -34.0226 LP  0  0  0  0  0  0  0  0  0  0  0  0  # atno 5205 bound_to 1176
   -9.2610  -36.3437  -33.3058 LP  0  0  0  0  0  0  0  0  0  0  0  0  # atno 5206 bound_to 1176
   -2.7331  -32.3780  -36.7080 LP  0  0  0  0  0  0  0  0  0  0  0  0  # atno 5213 bound_to 1957
   -1.2589  -33.0172  -36.9993 LP  0  0  0  0  0  0  0  0  0  0  0  0  # atno 5214 bound_to 1957
  -15.1536  -28.9632  -37.1767 LP  0  0  0  0  0  0  0  0  0  0  0  0  # atno 5227 bound_to 1247
  -15.9710  -27.5658  -37.3904 LP  0  0  0  0  0  0  0  0  0  0  0  0  # atno 5228 bound_to 1247
  -13.4591  -24.4327  -40.4801 LP  0  0  0  0  0  0  0  0  0  0  0  0  # atno 5245 bound_to 1931
  -12.4352  -23.9633  -39.2978 LP  0  0  0  0  0  0  0  0  0  0  0  0  # atno 5246 bound_to 1931
  -12.8142  -23.1098  -30.5223 LP  0  0  0  0  0  0  0  0  0  0  0  0  # atno 5265 bound_to 1070
  -11.5968  -23.6832  -31.4474 LP  0  0  0  0  0  0  0  0  0  0  0  0  # atno 5266 bound_to 1070

$$$$
Molecule1_Diflapolin|Lisa_paper2_min|sdf|11|dock7
  -GOLD-  10202014443D 1   1.00000     0.00000

 47 50  0  0  0  0  0  0  0  0  1 V2000
   -6.0328  -33.2355  -35.5031 C   0  0  0  0  0  0  0  0  0  0  0  0
   -6.8928  -33.8313  -36.4191 C   0  0  0  0  0  0  0  0  0  0  0  0
   -6.5379  -32.4657  -34.4511 C   0  0  0  0  0  0  0  0  0  0  0  0
  -12.9736  -28.2926  -35.0067 C   0  0  0  0  0  0  0  0  0  0  0  0
  -15.8973  -23.7113  -39.0247 C   0  0  0  0  0  0  0  0  0  0  0  0
  -12.3510  -29.1359  -34.0865 C   0  0  0  0  0  0  0  0  0  0  0  0
   -8.2768  -33.6747  -36.3096 C   0  0  0  0  0  0  0  0  0  0  0  0
  -17.1109  -23.2598  -39.5433 C   0  0  0  0  0  0  0  0  0  0  0  0
  -10.6278  -27.4796  -33.7342 C   0  0  0  0  0  0  0  0  0  0  0  0
  -17.0879  -25.1317  -37.4750 C   0  0  0  0  0  0  0  0  0  0  0  0
  -11.2502  -26.6364  -34.6545 C   0  0  0  0  0  0  0  0  0  0  0  0
   -7.9324  -32.2914  -34.3174 C   0  0  0  0  0  0  0  0  0  0  0  0
  -15.8858  -24.6472  -37.9906 C   0  0  0  0  0  0  0  0  0  0  0  0
  -12.4231  -27.0428  -35.2908 C   0  0  0  0  0  0  0  0  0  0  0  0
  -11.1782  -28.7295  -33.4502 C   0  0  0  0  0  0  0  0  0  0  0  0
   -8.7772  -32.9001  -35.2506 C   0  0  0  0  0  0  0  0  0  0  0  0
  -18.3129  -23.7442  -39.0277 C   0  0  0  0  0  0  0  0  0  0  0  0
  -18.3015  -24.6802  -37.9935 C   0  0  0  0  0  0  0  0  0  0  0  0
   -9.8727  -31.6147  -33.5150 C   0  0  0  0  0  0  0  0  0  0  0  0
  -14.4473  -26.0358  -36.4343 C   0  0  0  0  0  0  0  0  0  0  0  0
  -10.6379  -25.3034  -34.9392 C   0  0  0  0  0  0  0  0  0  0  0  0
  -10.8688  -30.9472  -32.6491 C   0  0  0  0  0  0  0  0  0  0  0  0
   -8.5746  -31.5587  -33.3299 N   0  0  0  0  0  0  0  0  0  0  0  0
  -14.6544  -25.1055  -37.4653 N   0  0  0  0  0  0  0  0  0  0  0  0
  -13.0603  -26.2133  -36.2170 N   0  0  0  0  0  0  0  0  0  0  0  0
  -15.3326  -26.6126  -35.8109 O   0  0  0  0  0  0  0  0  0  0  0  0
  -10.5680  -29.5566  -32.5470 O   0  0  0  0  0  0  0  0  0  0  0  0
  -10.4139  -32.5279  -34.8563 S   0  0  0  0  0  0  0  0  0  0  0  0
  -19.7833  -23.1437  -39.7103 Cl  0  0  0  0  0  0  0  0  0  0  0  0
  -19.7575  -25.3160  -37.3116 Cl  0  0  0  0  0  0  0  0  0  0  0  0
   -4.9592  -33.3684  -35.6045 H   0  0  0  0  0  0  0  0  0  0  0  0
   -6.4847  -34.4267  -37.2315 H   0  0  0  0  0  0  0  0  0  0  0  0
   -5.8568  -32.0058  -33.7408 H   0  0  0  0  0  0  0  0  0  0  0  0
  -13.8868  -28.6207  -35.4971 H   0  0  0  0  0  0  0  0  0  0  0  0
  -14.9662  -23.3284  -39.4347 H   0  0  0  0  0  0  0  0  0  0  0  0
  -12.7850  -30.1082  -33.8691 H   0  0  0  0  0  0  0  0  0  0  0  0
   -8.9421  -34.1439  -37.0279 H   0  0  0  0  0  0  0  0  0  0  0  0
  -17.1008  -22.5312  -40.3502 H   0  0  0  0  0  0  0  0  0  0  0  0
   -9.7131  -27.1659  -33.2370 H   0  0  0  0  0  0  0  0  0  0  0  0
  -17.0725  -25.8609  -36.6673 H   0  0  0  0  0  0  0  0  0  0  0  0
   -9.9270  -25.3823  -35.7695 H   0  0  0  0  0  0  0  0  0  0  0  0
  -11.4041  -24.5643  -35.2032 H   0  0  0  0  0  0  0  0  0  0  0  0
  -10.1086  -24.9154  -34.0604 H   0  0  0  0  0  0  0  0  0  0  0  0
  -11.8938  -31.0474  -33.0449 H   0  0  0  0  0  0  0  0  0  0  0  0
  -10.8774  -31.3732  -31.6316 H   0  0  0  0  0  0  0  0  0  0  0  0
  -13.8164  -24.7126  -37.8864 H   0  0  0  0  0  0  0  0  0  0  0  0
  -12.4520  -25.6547  -36.8236 H   0  0  0  0  0  0  0  0  0  0  0  0
  1  2  2  0  0  0  0
  1  3  1  0  0  0  0
  2  7  1  0  0  0  0
  3 12  2  0  0  0  0
  4  6  2  0  0  0  0
  4 14  1  0  0  0  0
  5  8  2  0  0  0  0
  5 13  1  0  0  0  0
  6 15  1  0  0  0  0
  7 16  2  0  0  0  0
  8 17  1  0  0  0  0
  9 11  1  0  0  0  0
  9 15  2  0  0  0  0
 10 13  2  0  0  0  0
 10 18  1  0  0  0  0
 11 14  2  0  0  0  0
 11 21  1  0  0  0  0
 12 16  1  0  0  0  0
 12 23  1  0  0  0  0
 13 24  1  0  0  0  0
 14 25  1  0  0  0  0
 15 27  1  0  0  0  0
 16 28  1  0  0  0  0
 17 18  2  0  0  0  0
 17 29  1  0  0  0  0
 18 30  1  0  0  0  0
 19 22  1  0  0  0  0
 19 23  2  0  0  0  0
 19 28  1  0  0  0  0
 20 24  1  0  0  0  0
 20 25  1  0  0  0  0
 20 26  2  0  0  0  0
 22 27  1  0  0  0  0
  1 31  1  0  0  0  0
  2 32  1  0  0  0  0
  3 33  1  0  0  0  0
  4 34  1  0  0  0  0
  5 35  1  0  0  0  0
  6 36  1  0  0  0  0
  7 37  1  0  0  0  0
  8 38  1  0  0  0  0
  9 39  1  0  0  0  0
 10 40  1  0  0  0  0
 21 41  1  0  0  0  0
 21 42  1  0  0  0  0
 21 43  1  0  0  0  0
 22 44  1  0  0  0  0
 22 45  1  0  0  0  0
 24 46  1  0  0  0  0
 25 47  1  0  0  0  0
M  END
> <Name>
Molecule1_Diflapolin

> <SourceTag>
Molecule1_Diflapolin

> <Activity_sEH>
23

> <Activity_FLAP>
0.23

> <Gold.Version>
5.2

> <Gold.Id.Protein>
6HGV|6HGV_protein|mol2

> <Gold.PLP.Fitness>
80.1867

> <Gold.PLP.PLP>
-77.9985

> <Gold.PLP.part.hbond>
-7.2324

> <Gold.PLP.part.metal>
0.0000

> <Gold.PLP.part.buried>
3.2460

> <Gold.PLP.part.nonpolar>
-75.3121

> <Gold.PLP.part.repulsive>
0.0703

> <Gold.PLP.ligand.clash>
0.1240

> <Gold.PLP.ligand.torsion>
0.8200

> <Gold.PLP.Chemscore.Hbond>
0.8333

> <Gold.PLP.Chemscore.CHOScore>
0.0000

> <Gold.PLP.Chemscore.Metal>
0.0000

> <Gold.Chemscore.Hbonds>
donor molecule, donor type, donor heavy atom, donor atom, acceptor molecule, acceptor atom, score
      L1  H    24    46       P1  1931  0.69
      P1  H  1247  3847       L1    26  0.14

> <Gold.PLP.Chemscore.Internal.Correction>
0.3488

> <Gold.Protein.RotatedTorsions>
[ 3525  925  924  922 ] final   16.83 input   59.99 | X-H torsion
[ 3781 1176 1175 1172 ] final  142.94 input   60.00 | X-H torsion
[ 4531 1957 1955 1953 ] final  169.78 input   60.00 | X-H torsion
[ 3847 1247 1246 1244 ] final  -61.77 input   60.00 | X-H torsion
[ 4507 1931 1930 1928 ] final -143.13 input   60.00 | X-H torsion
[ 3677 1070 1069 1066 ] final  -27.53 input   60.00 | X-H torsion

> <Gold.Protein.ActiveResidues>
 GLY266  PHE267  PRO268  GLU269  MET310  HIS334  ASP335  TRP336  GLY337  GLY338 
 MET339  LEU340  TRP342  TYR343  LEU358  ASN359  THR360  PRO361  ILE363  ALA365 
 MET369  SER370  PRO371  LEU372  GLU373  SER374  ILE375  LYS376  ALA377  ASN378 
 VAL380  PHE381  ASP382  TYR383  GLN384  PHE387  GLN388  LEU397  SER407  LEU408 
 PHE409  ARG410  LEU417  MET419  LEU428  PHE429  PHE459  TRP465  TYR466  ASN468 
 MET469  GLU470  ASN472  TRP473  ALA476  ASP496  PHE497  VAL498  LEU499  MET503 
 HIS524  TRP525 

> <Gold.Protein.RotatedAtoms>
   -3.4173  -29.6062  -30.6734 H   0  0  0  0  0  0  0  0  0  0  0  0  # atno 3525 bound_to 925 
  -12.6805  -23.5978  -30.8630 H   0  0  0  0  0  0  0  0  0  0  0  0  # atno 3677 bound_to 1070
   -9.5556  -36.8593  -32.4619 H   0  0  0  0  0  0  0  0  0  0  0  0  # atno 3781 bound_to 1176
  -16.0591  -27.8435  -37.2523 H   0  0  0  0  0  0  0  0  0  0  0  0  # atno 3847 bound_to 1247
  -13.2706  -24.1853  -40.4607 H   0  0  0  0  0  0  0  0  0  0  0  0  # atno 4507 bound_to 1931
   -1.6223  -33.8747  -36.9475 H   0  0  0  0  0  0  0  0  0  0  0  0  # atno 4531 bound_to 1957
   -3.2677  -29.8208  -29.0673 LP  0  0  0  0  0  0  0  0  0  0  0  0  # atno 5201 bound_to 925 
   -2.0544  -30.2582  -30.0689 LP  0  0  0  0  0  0  0  0  0  0  0  0  # atno 5202 bound_to 925 
  -10.8305  -37.3828  -33.3272 LP  0  0  0  0  0  0  0  0  0  0  0  0  # atno 5205 bound_to 1176
   -9.7279  -36.3911  -34.0109 LP  0  0  0  0  0  0  0  0  0  0  0  0  # atno 5206 bound_to 1176
   -3.0975  -33.2533  -36.6539 LP  0  0  0  0  0  0  0  0  0  0  0  0  # atno 5213 bound_to 1957
   -1.8205  -32.2609  -36.8795 LP  0  0  0  0  0  0  0  0  0  0  0  0  # atno 5214 bound_to 1957
  -14.6426  -27.4565  -37.9536 LP  0  0  0  0  0  0  0  0  0  0  0  0  # atno 5227 bound_to 1247
  -14.8566  -28.9387  -37.3026 LP  0  0  0  0  0  0  0  0  0  0  0  0  # atno 5228 bound_to 1247
  -12.4402  -24.1678  -39.0613 LP  0  0  0  0  0  0  0  0  0  0  0  0  # atno 5245 bound_to 1931
  -13.4825  -25.3837  -39.3804 LP  0  0  0  0  0  0  0  0  0  0  0  0  # atno 5246 bound_to 1931
  -11.1859  -23.2330  -31.3930 LP  0  0  0  0  0  0  0  0  0  0  0  0  # atno 5265 bound_to 1070
  -11.9826  -22.1986  -30.4122 LP  0  0  0  0  0  0  0  0  0  0  0  0  # atno 5266 bound_to 1070

$$$$
Molecule1_Diflapolin|Lisa_paper2_min|sdf|11|dock10
  -GOLD-  10202014443D 1   1.00000     0.00000

 47 50  0  0  0  0  0  0  0  0  1 V2000
   -7.7340  -33.9851  -36.4452 C   0  0  0  0  0  0  0  0  0  0  0  0
   -6.5664  -33.5548  -35.8244 C   0  0  0  0  0  0  0  0  0  0  0  0
   -8.9835  -33.5784  -35.9683 C   0  0  0  0  0  0  0  0  0  0  0  0
  -13.0326  -28.3255  -34.9319 C   0  0  0  0  0  0  0  0  0  0  0  0
  -17.1655  -25.2648  -37.5438 C   0  0  0  0  0  0  0  0  0  0  0  0
  -12.4098  -29.0991  -33.9525 C   0  0  0  0  0  0  0  0  0  0  0  0
   -6.6152  -32.7091  -34.7134 C   0  0  0  0  0  0  0  0  0  0  0  0
  -18.3794  -24.8365  -38.0808 C   0  0  0  0  0  0  0  0  0  0  0  0
  -10.7259  -27.3894  -33.6726 C   0  0  0  0  0  0  0  0  0  0  0  0
  -15.9768  -24.0352  -39.2503 C   0  0  0  0  0  0  0  0  0  0  0  0
  -11.3486  -26.6158  -34.6521 C   0  0  0  0  0  0  0  0  0  0  0  0
   -9.0611  -32.7240  -34.8472 C   0  0  0  0  0  0  0  0  0  0  0  0
  -15.9641  -24.8641  -38.1285 C   0  0  0  0  0  0  0  0  0  0  0  0
  -12.5019  -27.0838  -35.2818 C   0  0  0  0  0  0  0  0  0  0  0  0
  -11.2565  -28.6311  -33.3229 C   0  0  0  0  0  0  0  0  0  0  0  0
   -7.8737  -32.3046  -34.2397 C   0  0  0  0  0  0  0  0  0  0  0  0
  -18.3921  -24.0076  -39.2025 C   0  0  0  0  0  0  0  0  0  0  0  0
  -17.1907  -23.6069  -39.7873 C   0  0  0  0  0  0  0  0  0  0  0  0
   -9.9195  -31.4754  -33.2437 C   0  0  0  0  0  0  0  0  0  0  0  0
  -14.5259  -26.1412  -36.4793 C   0  0  0  0  0  0  0  0  0  0  0  0
  -10.7577  -25.2899  -35.0066 C   0  0  0  0  0  0  0  0  0  0  0  0
  -10.9129  -30.7908  -32.3883 C   0  0  0  0  0  0  0  0  0  0  0  0
  -10.2242  -32.2410  -34.2654 N   0  0  0  0  0  0  0  0  0  0  0  0
  -14.7329  -25.2983  -37.5829 N   0  0  0  0  0  0  0  0  0  0  0  0
  -13.1390  -26.3247  -36.2665 N   0  0  0  0  0  0  0  0  0  0  0  0
  -15.4112  -26.6467  -35.7969 O   0  0  0  0  0  0  0  0  0  0  0  0
  -10.6461  -29.3897  -32.3616 O   0  0  0  0  0  0  0  0  0  0  0  0
   -8.2540  -31.2790  -32.9069 S   0  0  0  0  0  0  0  0  0  0  0  0
  -19.9282  -23.5136  -39.8227 Cl  0  0  0  0  0  0  0  0  0  0  0  0
  -17.1414  -22.5827  -41.1793 Cl  0  0  0  0  0  0  0  0  0  0  0  0
   -7.6762  -34.6429  -37.3081 H   0  0  0  0  0  0  0  0  0  0  0  0
   -5.6025  -33.8799  -36.2070 H   0  0  0  0  0  0  0  0  0  0  0  0
   -9.8890  -33.9198  -36.4618 H   0  0  0  0  0  0  0  0  0  0  0  0
  -13.9304  -28.7012  -35.4165 H   0  0  0  0  0  0  0  0  0  0  0  0
  -17.1668  -25.9095  -36.6685 H   0  0  0  0  0  0  0  0  0  0  0  0
  -12.8284  -30.0653  -33.6840 H   0  0  0  0  0  0  0  0  0  0  0  0
   -5.6993  -32.3764  -34.2347 H   0  0  0  0  0  0  0  0  0  0  0  0
  -19.3060  -25.1575  -37.6112 H   0  0  0  0  0  0  0  0  0  0  0  0
   -9.8264  -27.0276  -33.1803 H   0  0  0  0  0  0  0  0  0  0  0  0
  -15.0363  -23.7270  -39.7028 H   0  0  0  0  0  0  0  0  0  0  0  0
  -10.0309  -25.4038  -35.8189 H   0  0  0  0  0  0  0  0  0  0  0  0
  -11.5335  -24.5840  -35.3271 H   0  0  0  0  0  0  0  0  0  0  0  0
  -10.2516  -24.8391  -34.1442 H   0  0  0  0  0  0  0  0  0  0  0  0
  -11.9435  -30.9359  -32.7543 H   0  0  0  0  0  0  0  0  0  0  0  0
  -10.8877  -31.1659  -31.3512 H   0  0  0  0  0  0  0  0  0  0  0  0
  -13.8948  -24.9579  -38.0474 H   0  0  0  0  0  0  0  0  0  0  0  0
  -12.5306  -25.8308  -36.9268 H   0  0  0  0  0  0  0  0  0  0  0  0
  1  2  2  0  0  0  0
  1  3  1  0  0  0  0
  2  7  1  0  0  0  0
  3 12  2  0  0  0  0
  4  6  2  0  0  0  0
  4 14  1  0  0  0  0
  5  8  2  0  0  0  0
  5 13  1  0  0  0  0
  6 15  1  0  0  0  0
  7 16  2  0  0  0  0
  8 17  1  0  0  0  0
  9 11  1  0  0  0  0
  9 15  2  0  0  0  0
 10 13  2  0  0  0  0
 10 18  1  0  0  0  0
 11 14  2  0  0  0  0
 11 21  1  0  0  0  0
 12 16  1  0  0  0  0
 12 23  1  0  0  0  0
 13 24  1  0  0  0  0
 14 25  1  0  0  0  0
 15 27  1  0  0  0  0
 16 28  1  0  0  0  0
 17 18  2  0  0  0  0
 17 29  1  0  0  0  0
 18 30  1  0  0  0  0
 19 22  1  0  0  0  0
 19 23  2  0  0  0  0
 19 28  1  0  0  0  0
 20 24  1  0  0  0  0
 20 25  1  0  0  0  0
 20 26  2  0  0  0  0
 22 27  1  0  0  0  0
  1 31  1  0  0  0  0
  2 32  1  0  0  0  0
  3 33  1  0  0  0  0
  4 34  1  0  0  0  0
  5 35  1  0  0  0  0
  6 36  1  0  0  0  0
  7 37  1  0  0  0  0
  8 38  1  0  0  0  0
  9 39  1  0  0  0  0
 10 40  1  0  0  0  0
 21 41  1  0  0  0  0
 21 42  1  0  0  0  0
 21 43  1  0  0  0  0
 22 44  1  0  0  0  0
 22 45  1  0  0  0  0
 24 46  1  0  0  0  0
 25 47  1  0  0  0  0
M  END
> <Name>
Molecule1_Diflapolin

> <SourceTag>
Molecule1_Diflapolin

> <Activity_sEH>
23

> <Activity_FLAP>
0.23

> <Gold.Version>
5.2

> <Gold.Id.Protein>
6HGV|6HGV_protein|mol2

> <Gold.PLP.Fitness>
79.9695

> <Gold.PLP.PLP>
-77.3062

> <Gold.PLP.part.hbond>
-7.1107

> <Gold.PLP.part.metal>
0.0000

> <Gold.PLP.part.buried>
3.8645

> <Gold.PLP.part.nonpolar>
-73.8584

> <Gold.PLP.part.repulsive>
0.0871

> <Gold.PLP.ligand.clash>
0.0874

> <Gold.PLP.ligand.torsion>
0.8301

> <Gold.PLP.Chemscore.Hbond>
0.9677

> <Gold.PLP.Chemscore.CHOScore>
0.0000

> <Gold.PLP.Chemscore.Metal>
0.0000

> <Gold.Chemscore.Hbonds>
donor molecule, donor type, donor heavy atom, donor atom, acceptor molecule, acceptor atom, score
      L1  H    24    46       P1  1931  0.88
      P1  H  1247  3847       L1    26  0.09

> <Gold.PLP.Chemscore.Internal.Correction>
0.3488

> <Gold.Protein.RotatedTorsions>
[ 3525  925  924  922 ] final  -80.32 input   59.99 | X-H torsion
[ 3781 1176 1175 1172 ] final  -29.69 input   60.00 | X-H torsion
[ 4531 1957 1955 1953 ] final  -43.41 input   60.00 | X-H torsion
[ 3847 1247 1246 1244 ] final  -44.34 input   60.00 | X-H torsion
[ 4507 1931 1930 1928 ] final -163.44 input   60.00 | X-H torsion
[ 3677 1070 1069 1066 ] final  -55.92 input   60.00 | X-H torsion

> <Gold.Protein.ActiveResidues>
 GLY266  PHE267  PRO268  GLU269  MET310  HIS334  ASP335  TRP336  GLY337  GLY338 
 MET339  LEU340  TRP342  TYR343  LEU358  ASN359  THR360  PRO361  ILE363  ALA365 
 MET369  SER370  PRO371  LEU372  GLU373  SER374  ILE375  LYS376  ALA377  ASN378 
 VAL380  PHE381  ASP382  TYR383  GLN384  PHE387  GLN388  LEU397  SER407  LEU408 
 PHE409  ARG410  LEU417  MET419  LEU428  PHE429  PHE459  TRP465  TYR466  ASN468 
 MET469  GLU470  ASN472  TRP473  ALA476  ASP496  PHE497  VAL498  LEU499  MET503 
 HIS524  TRP525 

> <Gold.Protein.RotatedAtoms>
   -3.5413  -29.6799  -29.2769 H   0  0  0  0  0  0  0  0  0  0  0  0  # atno 3525 bound_to 925 
  -12.3755  -23.8093  -31.1334 H   0  0  0  0  0  0  0  0  0  0  0  0  # atno 3677 bound_to 1070
  -10.5936  -36.9714  -34.0117 H   0  0  0  0  0  0  0  0  0  0  0  0  # atno 3781 bound_to 1176
  -16.0558  -28.1090  -37.1521 H   0  0  0  0  0  0  0  0  0  0  0  0  # atno 3847 bound_to 1247
  -13.0503  -23.9679  -40.3460 H   0  0  0  0  0  0  0  0  0  0  0  0  # atno 4507 bound_to 1931
   -2.2442  -32.1977  -36.8003 H   0  0  0  0  0  0  0  0  0  0  0  0  # atno 4531 bound_to 1957
   -2.0874  -30.2778  -29.6974 LP  0  0  0  0  0  0  0  0  0  0  0  0  # atno 5201 bound_to 925 
   -3.1100  -29.7270  -30.8453 LP  0  0  0  0  0  0  0  0  0  0  0  0  # atno 5202 bound_to 925 
   -9.2636  -36.3410  -33.3176 LP  0  0  0  0  0  0  0  0  0  0  0  0  # atno 5205 bound_to 1176
  -10.2496  -37.3201  -32.4599 LP  0  0  0  0  0  0  0  0  0  0  0  0  # atno 5206 bound_to 1176
   -1.3458  -33.5410  -36.9919 LP  0  0  0  0  0  0  0  0  0  0  0  0  # atno 5213 bound_to 1957
   -2.9460  -33.6618  -36.6898 LP  0  0  0  0  0  0  0  0  0  0  0  0  # atno 5214 bound_to 1957
  -14.8766  -27.2952  -37.9235 LP  0  0  0  0  0  0  0  0  0  0  0  0  # atno 5227 bound_to 1247
  -14.6259  -28.8327  -37.4338 LP  0  0  0  0  0  0  0  0  0  0  0  0  # atno 5228 bound_to 1247
  -12.5209  -24.4343  -38.8796 LP  0  0  0  0  0  0  0  0  0  0  0  0  # atno 5245 bound_to 1931
  -13.6237  -25.3363  -39.6777 LP  0  0  0  0  0  0  0  0  0  0  0  0  # atno 5246 bound_to 1931
  -11.0847  -22.8213  -31.2083 LP  0  0  0  0  0  0  0  0  0  0  0  0  # atno 5265 bound_to 1070
  -12.3909  -22.3973  -30.3247 LP  0  0  0  0  0  0  0  0  0  0  0  0  # atno 5266 bound_to 1070

$$$$
Molecule1_Diflapolin|Lisa_paper2_min|sdf|11|dock4
  -GOLD-  10202014433D 1   1.00000     0.00000

 47 50  0  0  0  0  0  0  0  0  1 V2000
   -2.9780  -32.4479  -32.4987 C   0  0  0  0  0  0  0  0  0  0  0  0
   -3.3090  -33.6677  -33.0785 C   0  0  0  0  0  0  0  0  0  0  0  0
   -3.7214  -31.2996  -32.7866 C   0  0  0  0  0  0  0  0  0  0  0  0
  -10.9112  -27.6588  -36.4975 C   0  0  0  0  0  0  0  0  0  0  0  0
  -16.4901  -25.6111  -37.2469 C   0  0  0  0  0  0  0  0  0  0  0  0
   -9.8993  -28.5204  -36.0742 C   0  0  0  0  0  0  0  0  0  0  0  0
   -4.3884  -33.7733  -33.9592 C   0  0  0  0  0  0  0  0  0  0  0  0
  -17.7631  -25.5087  -37.8076 C   0  0  0  0  0  0  0  0  0  0  0  0
   -9.4709  -27.0861  -34.1779 C   0  0  0  0  0  0  0  0  0  0  0  0
  -15.7495  -23.7422  -38.5870 C   0  0  0  0  0  0  0  0  0  0  0  0
  -10.4828  -26.2244  -34.6012 C   0  0  0  0  0  0  0  0  0  0  0  0
   -4.8171  -31.3785  -33.6733 C   0  0  0  0  0  0  0  0  0  0  0  0
  -15.4833  -24.7278  -37.6365 C   0  0  0  0  0  0  0  0  0  0  0  0
  -11.2030  -26.5106  -35.7609 C   0  0  0  0  0  0  0  0  0  0  0  0
   -9.1791  -28.2341  -34.9145 C   0  0  0  0  0  0  0  0  0  0  0  0
   -5.1307  -32.6158  -34.2440 C   0  0  0  0  0  0  0  0  0  0  0  0
  -18.0294  -24.5233  -38.7580 C   0  0  0  0  0  0  0  0  0  0  0  0
  -17.0225  -23.6399  -39.1477 C   0  0  0  0  0  0  0  0  0  0  0  0
   -6.5545  -30.7653  -34.8867 C   0  0  0  0  0  0  0  0  0  0  0  0
  -13.4742  -25.9985  -36.7600 C   0  0  0  0  0  0  0  0  0  0  0  0
  -10.7732  -25.0019  -33.7924 C   0  0  0  0  0  0  0  0  0  0  0  0
   -7.6030  -29.9178  -35.4948 C   0  0  0  0  0  0  0  0  0  0  0  0
   -5.6413  -30.3286  -34.0512 N   0  0  0  0  0  0  0  0  0  0  0  0
  -14.1922  -24.8316  -37.0669 N   0  0  0  0  0  0  0  0  0  0  0  0
  -12.2187  -25.6590  -36.2022 N   0  0  0  0  0  0  0  0  0  0  0  0
  -13.8705  -27.1446  -36.9453 O   0  0  0  0  0  0  0  0  0  0  0  0
   -8.1870  -29.0798  -34.4991 O   0  0  0  0  0  0  0  0  0  0  0  0
   -6.4985  -32.4297  -35.2771 S   0  0  0  0  0  0  0  0  0  0  0  0
  -19.6254  -24.4498  -39.4181 Cl  0  0  0  0  0  0  0  0  0  0  0  0
  -17.2904  -22.3995  -40.3220 Cl  0  0  0  0  0  0  0  0  0  0  0  0
   -2.1349  -32.3852  -31.8162 H   0  0  0  0  0  0  0  0  0  0  0  0
   -2.7212  -34.5515  -32.8447 H   0  0  0  0  0  0  0  0  0  0  0  0
   -3.4545  -30.3521  -32.3271 H   0  0  0  0  0  0  0  0  0  0  0  0
  -11.4651  -27.8918  -37.4036 H   0  0  0  0  0  0  0  0  0  0  0  0
  -16.2936  -26.3818  -36.5059 H   0  0  0  0  0  0  0  0  0  0  0  0
   -9.6771  -29.4135  -36.6521 H   0  0  0  0  0  0  0  0  0  0  0  0
   -4.6415  -34.7294  -34.4071 H   0  0  0  0  0  0  0  0  0  0  0  0
  -18.5360  -26.2047  -37.4910 H   0  0  0  0  0  0  0  0  0  0  0  0
   -8.9073  -26.8654  -33.2745 H   0  0  0  0  0  0  0  0  0  0  0  0
  -14.9596  -23.0568  -38.8879 H   0  0  0  0  0  0  0  0  0  0  0  0
  -10.1631  -24.1617  -34.1429 H   0  0  0  0  0  0  0  0  0  0  0  0
  -11.8309  -24.7212  -33.8655 H   0  0  0  0  0  0  0  0  0  0  0  0
  -10.5598  -25.1707  -32.7298 H   0  0  0  0  0  0  0  0  0  0  0  0
   -7.2004  -29.2712  -36.2930 H   0  0  0  0  0  0  0  0  0  0  0  0
   -8.4055  -30.5228  -35.9496 H   0  0  0  0  0  0  0  0  0  0  0  0
  -13.7271  -23.9528  -36.8536 H   0  0  0  0  0  0  0  0  0  0  0  0
  -12.0416  -24.6536  -36.1142 H   0  0  0  0  0  0  0  0  0  0  0  0
  1  2  2  0  0  0  0
  1  3  1  0  0  0  0
  2  7  1  0  0  0  0
  3 12  2  0  0  0  0
  4  6  2  0  0  0  0
  4 14  1  0  0  0  0
  5  8  2  0  0  0  0
  5 13  1  0  0  0  0
  6 15  1  0  0  0  0
  7 16  2  0  0  0  0
  8 17  1  0  0  0  0
  9 11  1  0  0  0  0
  9 15  2  0  0  0  0
 10 13  2  0  0  0  0
 10 18  1  0  0  0  0
 11 14  2  0  0  0  0
 11 21  1  0  0  0  0
 12 16  1  0  0  0  0
 12 23  1  0  0  0  0
 13 24  1  0  0  0  0
 14 25  1  0  0  0  0
 15 27  1  0  0  0  0
 16 28  1  0  0  0  0
 17 18  2  0  0  0  0
 17 29  1  0  0  0  0
 18 30  1  0  0  0  0
 19 22  1  0  0  0  0
 19 23  2  0  0  0  0
 19 28  1  0  0  0  0
 20 24  1  0  0  0  0
 20 25  1  0  0  0  0
 20 26  2  0  0  0  0
 22 27  1  0  0  0  0
  1 31  1  0  0  0  0
  2 32  1  0  0  0  0
  3 33  1  0  0  0  0
  4 34  1  0  0  0  0
  5 35  1  0  0  0  0
  6 36  1  0  0  0  0
  7 37  1  0  0  0  0
  8 38  1  0  0  0  0
  9 39  1  0  0  0  0
 10 40  1  0  0  0  0
 21 41  1  0  0  0  0
 21 42  1  0  0  0  0
 21 43  1  0  0  0  0
 22 44  1  0  0  0  0
 22 45  1  0  0  0  0
 24 46  1  0  0  0  0
 25 47  1  0  0  0  0
M  END
> <Name>
Molecule1_Diflapolin

> <SourceTag>
Molecule1_Diflapolin

> <Activity_sEH>
23

> <Activity_FLAP>
0.23

> <Gold.Version>
5.2

> <Gold.Id.Protein>
6HGV|6HGV_protein|mol2

> <Gold.PLP.Fitness>
79.6152

> <Gold.PLP.PLP>
-76.7125

> <Gold.PLP.part.hbond>
-2.4596

> <Gold.PLP.part.metal>
0.0000

> <Gold.PLP.part.buried>
7.4497

> <Gold.PLP.part.nonpolar>
-83.0225

> <Gold.PLP.part.repulsive>
0.0746

> <Gold.PLP.ligand.clash>
0.0079

> <Gold.PLP.ligand.torsion>
1.1222

> <Gold.PLP.Chemscore.Hbond>
1.1030

> <Gold.PLP.Chemscore.CHOScore>
0.0000

> <Gold.PLP.Chemscore.Metal>
0.0000

> <Gold.Chemscore.Hbonds>
donor molecule, donor type, donor heavy atom, donor atom, acceptor molecule, acceptor atom, score
      L1  H    24    46       P1   853  0.23
      L1  H    25    47       P1   853  0.01
      P1  H  1256  3855       L1    26  0.47
      P1  H  1247  3847       L1    26  0.39

> <Gold.PLP.Chemscore.Internal.Correction>
0.3488

> <Gold.Protein.RotatedTorsions>
[ 3525  925  924  922 ] final -142.63 input   59.99 | X-H torsion
[ 3781 1176 1175 1172 ] final  131.37 input   60.00 | X-H torsion
[ 4531 1957 1955 1953 ] final  -88.11 input   60.00 | X-H torsion
[ 3847 1247 1246 1244 ] final  137.36 input   60.00 | X-H torsion
[ 4507 1931 1930 1928 ] final   22.63 input   60.00 | X-H torsion
[ 3677 1070 1069 1066 ] final   91.08 input   60.00 | X-H torsion

> <Gold.Protein.ActiveResidues>
 GLY266  PHE267  PRO268  GLU269  MET310  HIS334  ASP335  TRP336  GLY337  GLY338 
 MET339  LEU340  TRP342  TYR343  LEU358  ASN359  THR360  PRO361  ILE363  ALA365 
 MET369  SER370  PRO371  LEU372  GLU373  SER374  ILE375  LYS376  ALA377  ASN378 
 VAL380  PHE381  ASP382  TYR383  GLN384  PHE387  GLN388  LEU397  SER407  LEU408 
 PHE409  ARG410  LEU417  MET419  LEU428  PHE429  PHE459  TRP465  TYR466  ASN468 
 MET469  GLU470  ASN472  TRP473  ALA476  ASP496  PHE497  VAL498  LEU499  MET503 
 HIS524  TRP525 

> <Gold.Protein.RotatedAtoms>
   -2.6863  -30.0736  -29.0481 H   0  0  0  0  0  0  0  0  0  0  0  0  # atno 3525 bound_to 925 
  -12.0023  -22.2107  -30.4065 H   0  0  0  0  0  0  0  0  0  0  0  0  # atno 3677 bound_to 1070
   -9.6922  -36.9738  -32.3996 H   0  0  0  0  0  0  0  0  0  0  0  0  # atno 3781 bound_to 1176
  -14.3261  -28.0242  -37.8634 H   0  0  0  0  0  0  0  0  0  0  0  0  # atno 3847 bound_to 1247
  -13.0103  -25.1318  -38.8832 H   0  0  0  0  0  0  0  0  0  0  0  0  # atno 4507 bound_to 1931
   -1.5800  -32.4190  -36.9304 H   0  0  0  0  0  0  0  0  0  0  0  0  # atno 4531 bound_to 1957
   -2.3070  -30.0967  -30.6305 LP  0  0  0  0  0  0  0  0  0  0  0  0  # atno 5201 bound_to 925 
   -3.7514  -29.5116  -30.1426 LP  0  0  0  0  0  0  0  0  0  0  0  0  # atno 5202 bound_to 925 
  -10.8346  -37.3185  -33.5061 LP  0  0  0  0  0  0  0  0  0  0  0  0  # atno 5205 bound_to 1176
   -9.5863  -36.3401  -33.8947 LP  0  0  0  0  0  0  0  0  0  0  0  0  # atno 5206 bound_to 1176
   -1.8716  -34.0197  -36.9002 LP  0  0  0  0  0  0  0  0  0  0  0  0  # atno 5213 bound_to 1957
   -3.0890  -32.9603  -36.6505 LP  0  0  0  0  0  0  0  0  0  0  0  0  # atno 5214 bound_to 1957
  -15.4746  -28.8743  -37.0847 LP  0  0  0  0  0  0  0  0  0  0  0  0  # atno 5227 bound_to 1247
  -15.7698  -27.3390  -37.5562 LP  0  0  0  0  0  0  0  0  0  0  0  0  # atno 5228 bound_to 1247
  -13.6419  -24.8041  -40.3466 LP  0  0  0  0  0  0  0  0  0  0  0  0  # atno 5245 bound_to 1931
  -12.5429  -23.7944  -39.6838 LP  0  0  0  0  0  0  0  0  0  0  0  0  # atno 5246 bound_to 1931
  -12.6752  -23.6151  -30.8784 LP  0  0  0  0  0  0  0  0  0  0  0  0  # atno 5265 bound_to 1070
  -11.1762  -23.2133  -31.3865 LP  0  0  0  0  0  0  0  0  0  0  0  0  # atno 5266 bound_to 1070

$$$$
Molecule1_Diflapolin|Lisa_paper2_min|sdf|11|dock2
  -GOLD-  10202014423D 1   1.00000     0.00000

 47 50  0  0  0  0  0  0  0  0  1 V2000
   -2.9748  -32.2151  -32.4944 C   0  0  0  0  0  0  0  0  0  0  0  0
   -3.2993  -33.4523  -33.0401 C   0  0  0  0  0  0  0  0  0  0  0  0
   -3.7349  -31.0824  -32.8002 C   0  0  0  0  0  0  0  0  0  0  0  0
  -10.9297  -27.5017  -36.5635 C   0  0  0  0  0  0  0  0  0  0  0  0
  -15.5610  -23.3839  -38.7304 C   0  0  0  0  0  0  0  0  0  0  0  0
   -9.9575  -28.4026  -36.1288 C   0  0  0  0  0  0  0  0  0  0  0  0
   -4.3886  -33.5912  -33.9039 C   0  0  0  0  0  0  0  0  0  0  0  0
  -16.7848  -23.2275  -39.3811 C   0  0  0  0  0  0  0  0  0  0  0  0
   -9.6505  -27.1006  -34.1169 C   0  0  0  0  0  0  0  0  0  0  0  0
  -16.4131  -25.3405  -37.5980 C   0  0  0  0  0  0  0  0  0  0  0  0
  -10.6226  -26.1997  -34.5516 C   0  0  0  0  0  0  0  0  0  0  0  0
   -4.8408  -31.1950  -33.6704 C   0  0  0  0  0  0  0  0  0  0  0  0
  -15.3752  -24.4404  -37.8389 C   0  0  0  0  0  0  0  0  0  0  0  0
  -11.2622  -26.4001  -35.7748 C   0  0  0  0  0  0  0  0  0  0  0  0
   -9.3179  -28.2021  -34.9056 C   0  0  0  0  0  0  0  0  0  0  0  0
   -5.1475  -32.4493  -34.2069 C   0  0  0  0  0  0  0  0  0  0  0  0
  -17.8227  -24.1275  -39.1403 C   0  0  0  0  0  0  0  0  0  0  0  0
  -17.6369  -25.1841  -38.2487 C   0  0  0  0  0  0  0  0  0  0  0  0
   -6.6004  -30.6308  -34.8755 C   0  0  0  0  0  0  0  0  0  0  0  0
  -13.4459  -25.7926  -36.9067 C   0  0  0  0  0  0  0  0  0  0  0  0
  -10.9582  -25.0288  -33.6860 C   0  0  0  0  0  0  0  0  0  0  0  0
   -7.6662  -29.8100  -35.4903 C   0  0  0  0  0  0  0  0  0  0  0  0
   -5.6817  -30.1638  -34.0628 N   0  0  0  0  0  0  0  0  0  0  0  0
  -14.1333  -24.5991  -37.1796 N   0  0  0  0  0  0  0  0  0  0  0  0
  -12.2370  -25.5081  -36.2284 N   0  0  0  0  0  0  0  0  0  0  0  0
  -13.8305  -26.9177  -37.2088 O   0  0  0  0  0  0  0  0  0  0  0  0
   -8.3648  -29.0862  -34.4790 O   0  0  0  0  0  0  0  0  0  0  0  0
   -6.5305  -32.3036  -35.2262 S   0  0  0  0  0  0  0  0  0  0  0  0
  -19.3160  -23.8783  -39.9748 Cl  0  0  0  0  0  0  0  0  0  0  0  0
  -18.8853  -26.3305  -37.9073 Cl  0  0  0  0  0  0  0  0  0  0  0  0
   -2.1239  -32.1265  -31.8246 H   0  0  0  0  0  0  0  0  0  0  0  0
   -2.6986  -34.3236  -32.7926 H   0  0  0  0  0  0  0  0  0  0  0  0
   -3.4729  -30.1212  -32.3673 H   0  0  0  0  0  0  0  0  0  0  0  0
  -11.4207  -27.6678  -37.5192 H   0  0  0  0  0  0  0  0  0  0  0  0
  -14.7582  -22.6776  -38.9264 H   0  0  0  0  0  0  0  0  0  0  0  0
   -9.7033  -29.2590  -36.7474 H   0  0  0  0  0  0  0  0  0  0  0  0
   -4.6364  -34.5606  -34.3251 H   0  0  0  0  0  0  0  0  0  0  0  0
  -16.9113  -22.3991  -40.0738 H   0  0  0  0  0  0  0  0  0  0  0  0
   -9.1497  -26.9468  -33.1640 H   0  0  0  0  0  0  0  0  0  0  0  0
  -16.2626  -26.1621  -36.9005 H   0  0  0  0  0  0  0  0  0  0  0  0
  -10.3176  -24.1758  -33.9372 H   0  0  0  0  0  0  0  0  0  0  0  0
  -12.0057  -24.7298  -33.8137 H   0  0  0  0  0  0  0  0  0  0  0  0
  -10.8212  -25.2692  -32.6247 H   0  0  0  0  0  0  0  0  0  0  0  0
   -7.2618  -29.0824  -36.2143 H   0  0  0  0  0  0  0  0  0  0  0  0
   -8.3967  -30.4303  -36.0366 H   0  0  0  0  0  0  0  0  0  0  0  0
  -13.6833  -23.7433  -36.8646 H   0  0  0  0  0  0  0  0  0  0  0  0
  -12.0637  -24.5138  -36.0509 H   0  0  0  0  0  0  0  0  0  0  0  0
  1  2  2  0  0  0  0
  1  3  1  0  0  0  0
  2  7  1  0  0  0  0
  3 12  2  0  0  0  0
  4  6  2  0  0  0  0
  4 14  1  0  0  0  0
  5  8  2  0  0  0  0
  5 13  1  0  0  0  0
  6 15  1  0  0  0  0
  7 16  2  0  0  0  0
  8 17  1  0  0  0  0
  9 11  1  0  0  0  0
  9 15  2  0  0  0  0
 10 13  2  0  0  0  0
 10 18  1  0  0  0  0
 11 14  2  0  0  0  0
 11 21  1  0  0  0  0
 12 16  1  0  0  0  0
 12 23  1  0  0  0  0
 13 24  1  0  0  0  0
 14 25  1  0  0  0  0
 15 27  1  0  0  0  0
 16 28  1  0  0  0  0
 17 18  2  0  0  0  0
 17 29  1  0  0  0  0
 18 30  1  0  0  0  0
 19 22  1  0  0  0  0
 19 23  2  0  0  0  0
 19 28  1  0  0  0  0
 20 24  1  0  0  0  0
 20 25  1  0  0  0  0
 20 26  2  0  0  0  0
 22 27  1  0  0  0  0
  1 31  1  0  0  0  0
  2 32  1  0  0  0  0
  3 33  1  0  0  0  0
  4 34  1  0  0  0  0
  5 35  1  0  0  0  0
  6 36  1  0  0  0  0
  7 37  1  0  0  0  0
  8 38  1  0  0  0  0
  9 39  1  0  0  0  0
 10 40  1  0  0  0  0
 21 41  1  0  0  0  0
 21 42  1  0  0  0  0
 21 43  1  0  0  0  0
 22 44  1  0  0  0  0
 22 45  1  0  0  0  0
 24 46  1  0  0  0  0
 25 47  1  0  0  0  0
M  END
> <Name>
Molecule1_Diflapolin

> <SourceTag>
Molecule1_Diflapolin

> <Activity_sEH>
23

> <Activity_FLAP>
0.23

> <Gold.Version>
5.2

> <Gold.Id.Protein>
6HGV|6HGV_protein|mol2

> <Gold.PLP.Fitness>
79.3440

> <Gold.PLP.PLP>
-77.0447

> <Gold.PLP.part.hbond>
-3.4905

> <Gold.PLP.part.metal>
0.0000

> <Gold.PLP.part.buried>
10.3318

> <Gold.PLP.part.nonpolar>
-83.9582

> <Gold.PLP.part.repulsive>
0.0788

> <Gold.PLP.ligand.clash>
0.0000

> <Gold.PLP.ligand.torsion>
1.0206

> <Gold.PLP.Chemscore.Hbond>
0.8895

> <Gold.PLP.Chemscore.CHOScore>
0.0000

> <Gold.PLP.Chemscore.Metal>
0.0000

> <Gold.Chemscore.Hbonds>
donor molecule, donor type, donor heavy atom, donor atom, acceptor molecule, acceptor atom, score
      L1  H    24    46       P1   853  0.08
      P1  H  1256  3855       L1    26  0.35
      P1  H  1247  3847       L1    26  0.46

> <Gold.PLP.Chemscore.Internal.Correction>
0.3488

> <Gold.Protein.RotatedTorsions>
[ 3525  925  924  922 ] final  -84.83 input   59.99 | X-H torsion
[ 3781 1176 1175 1172 ] final -168.07 input   60.00 | X-H torsion
[ 4531 1957 1955 1953 ] final  112.03 input   60.00 | X-H torsion
[ 3847 1247 1246 1244 ] final -168.93 input   60.00 | X-H torsion
[ 4507 1931 1930 1928 ] final    7.86 input   60.00 | X-H torsion
[ 3677 1070 1069 1066 ] final   18.21 input   60.00 | X-H torsion

> <Gold.Protein.ActiveResidues>
 GLY266  PHE267  PRO268  GLU269  MET310  HIS334  ASP335  TRP336  GLY337  GLY338 
 MET339  LEU340  TRP342  TYR343  LEU358  ASN359  THR360  PRO361  ILE363  ALA365 
 MET369  SER370  PRO371  LEU372  GLU373  SER374  ILE375  LYS376  ALA377  ASN378 
 VAL380  PHE381  ASP382  TYR383  GLN384  PHE387  GLN388  LEU397  SER407  LEU408 
 PHE409  ARG410  LEU417  MET419  LEU428  PHE429  PHE459  TRP465  TYR466  ASN468 
 MET469  GLU470  ASN472  TRP473  ALA476  ASP496  PHE497  VAL498  LEU499  MET503 
 HIS524  TRP525 

> <Gold.Protein.RotatedAtoms>
   -3.4932  -29.7054  -29.2271 H   0  0  0  0  0  0  0  0  0  0  0  0  # atno 3525 bound_to 925 
  -12.7872  -22.9960  -30.4678 H   0  0  0  0  0  0  0  0  0  0  0  0  # atno 3677 bound_to 1070
   -9.2438  -36.4371  -33.0338 H   0  0  0  0  0  0  0  0  0  0  0  0  # atno 3781 bound_to 1176
  -14.8146  -27.3373  -37.9344 H   0  0  0  0  0  0  0  0  0  0  0  0  # atno 3847 bound_to 1247
  -13.1727  -25.2610  -39.0049 H   0  0  0  0  0  0  0  0  0  0  0  0  # atno 4507 bound_to 1931
   -2.5013  -34.0092  -36.7827 H   0  0  0  0  0  0  0  0  0  0  0  0  # atno 4531 bound_to 1957
   -2.0701  -30.2787  -29.7696 LP  0  0  0  0  0  0  0  0  0  0  0  0  # atno 5201 bound_to 925 
   -3.1756  -29.7004  -30.8231 LP  0  0  0  0  0  0  0  0  0  0  0  0  # atno 5202 bound_to 925 
  -10.4819  -37.4120  -32.6281 LP  0  0  0  0  0  0  0  0  0  0  0  0  # atno 5205 bound_to 1176
  -10.3906  -36.7871  -34.1340 LP  0  0  0  0  0  0  0  0  0  0  0  0  # atno 5206 bound_to 1176
   -2.7677  -32.4059  -36.7019 LP  0  0  0  0  0  0  0  0  0  0  0  0  # atno 5213 bound_to 1957
   -1.2651  -32.9728  -36.9974 LP  0  0  0  0  0  0  0  0  0  0  0  0  # atno 5214 bound_to 1957
  -14.6825  -28.8679  -37.3981 LP  0  0  0  0  0  0  0  0  0  0  0  0  # atno 5227 bound_to 1247
  -16.0699  -28.0372  -37.1713 LP  0  0  0  0  0  0  0  0  0  0  0  0  # atno 5228 bound_to 1247
  -13.5539  -24.5994  -40.4419 LP  0  0  0  0  0  0  0  0  0  0  0  0  # atno 5245 bound_to 1931
  -12.4674  -23.8689  -39.4659 LP  0  0  0  0  0  0  0  0  0  0  0  0  # atno 5246 bound_to 1931
  -11.7083  -23.7457  -31.4281 LP  0  0  0  0  0  0  0  0  0  0  0  0  # atno 5265 bound_to 1070
  -11.3527  -22.2919  -30.7750 LP  0  0  0  0  0  0  0  0  0  0  0  0  # atno 5266 bound_to 1070

$$$$
Molecule1_Diflapolin|Lisa_paper2_min|sdf|11|dock1
  -GOLD-  10202014423D 1   1.00000     0.00000

 47 50  0  0  0  0  0  0  0  0  1 V2000
   -7.7502  -35.1997  -29.6346 C   0  0  0  0  0  0  0  0  0  0  0  0
   -6.6842  -34.3096  -29.5643 C   0  0  0  0  0  0  0  0  0  0  0  0
   -8.9586  -34.8158  -30.2234 C   0  0  0  0  0  0  0  0  0  0  0  0
  -12.9315  -28.3016  -34.9350 C   0  0  0  0  0  0  0  0  0  0  0  0
  -17.0853  -25.2481  -37.4348 C   0  0  0  0  0  0  0  0  0  0  0  0
  -12.2935  -29.1448  -34.0252 C   0  0  0  0  0  0  0  0  0  0  0  0
   -6.7960  -33.0153  -30.0785 C   0  0  0  0  0  0  0  0  0  0  0  0
  -18.3050  -24.8479  -37.9802 C   0  0  0  0  0  0  0  0  0  0  0  0
  -10.5701  -27.4841  -33.6947 C   0  0  0  0  0  0  0  0  0  0  0  0
  -15.9169  -23.8548  -39.0257 C   0  0  0  0  0  0  0  0  0  0  0  0
  -11.2080  -26.6410  -34.6045 C   0  0  0  0  0  0  0  0  0  0  0  0
   -9.0983  -33.5138  -30.7507 C   0  0  0  0  0  0  0  0  0  0  0  0
  -15.8911  -24.7515  -37.9575 C   0  0  0  0  0  0  0  0  0  0  0  0
  -12.3887  -27.0497  -35.2247 C   0  0  0  0  0  0  0  0  0  0  0  0
  -11.1128  -28.7361  -33.4051 C   0  0  0  0  0  0  0  0  0  0  0  0
   -8.0127  -32.6364  -30.6683 C   0  0  0  0  0  0  0  0  0  0  0  0
  -18.3308  -23.9512  -39.0483 C   0  0  0  0  0  0  0  0  0  0  0  0
  -17.1367  -23.4546  -39.5710 C   0  0  0  0  0  0  0  0  0  0  0  0
  -10.0039  -31.7559  -31.7288 C   0  0  0  0  0  0  0  0  0  0  0  0
  -14.4279  -26.1175  -36.4046 C   0  0  0  0  0  0  0  0  0  0  0  0
  -10.6036  -25.3058  -34.8955 C   0  0  0  0  0  0  0  0  0  0  0  0
  -10.9929  -30.8930  -32.4105 C   0  0  0  0  0  0  0  0  0  0  0  0
  -10.2312  -32.9949  -31.3604 N   0  0  0  0  0  0  0  0  0  0  0  0
  -14.6540  -25.1572  -37.4035 N   0  0  0  0  0  0  0  0  0  0  0  0
  -13.0414  -26.2204  -36.1401 N   0  0  0  0  0  0  0  0  0  0  0  0
  -15.2980  -26.7734  -35.8410 O   0  0  0  0  0  0  0  0  0  0  0  0
  -10.4874  -29.5630  -32.5122 O   0  0  0  0  0  0  0  0  0  0  0  0
   -8.4508  -31.1288  -31.3812 S   0  0  0  0  0  0  0  0  0  0  0  0
  -19.8734  -23.4963  -39.6821 Cl  0  0  0  0  0  0  0  0  0  0  0  0
  -17.1035  -22.3430  -40.8948 Cl  0  0  0  0  0  0  0  0  0  0  0  0
   -7.6446  -36.2022  -29.2291 H   0  0  0  0  0  0  0  0  0  0  0  0
   -5.7511  -34.6231  -29.1034 H   0  0  0  0  0  0  0  0  0  0  0  0
   -9.7844  -35.5197  -30.2738 H   0  0  0  0  0  0  0  0  0  0  0  0
  -13.8507  -28.6314  -35.4129 H   0  0  0  0  0  0  0  0  0  0  0  0
  -17.0764  -25.9462  -36.6016 H   0  0  0  0  0  0  0  0  0  0  0  0
  -12.7215  -30.1186  -33.8034 H   0  0  0  0  0  0  0  0  0  0  0  0
   -5.9590  -32.3263  -30.0210 H   0  0  0  0  0  0  0  0  0  0  0  0
  -19.2259  -25.2439  -37.5592 H   0  0  0  0  0  0  0  0  0  0  0  0
   -9.6492  -27.1687  -33.2100 H   0  0  0  0  0  0  0  0  0  0  0  0
  -14.9819  -23.4718  -39.4300 H   0  0  0  0  0  0  0  0  0  0  0  0
   -9.9044  -25.3813  -35.7359 H   0  0  0  0  0  0  0  0  0  0  0  0
  -11.3756  -24.5685  -35.1471 H   0  0  0  0  0  0  0  0  0  0  0  0
  -10.0629  -24.9179  -34.0236 H   0  0  0  0  0  0  0  0  0  0  0  0
  -11.2214  -31.2510  -33.4288 H   0  0  0  0  0  0  0  0  0  0  0  0
  -11.9502  -30.8566  -31.8635 H   0  0  0  0  0  0  0  0  0  0  0  0
  -13.8269  -24.6964  -37.7745 H   0  0  0  0  0  0  0  0  0  0  0  0
  -12.4469  -25.6002  -36.6986 H   0  0  0  0  0  0  0  0  0  0  0  0
  1  2  2  0  0  0  0
  1  3  1  0  0  0  0
  2  7  1  0  0  0  0
  3 12  2  0  0  0  0
  4  6  2  0  0  0  0
  4 14  1  0  0  0  0
  5  8  2  0  0  0  0
  5 13  1  0  0  0  0
  6 15  1  0  0  0  0
  7 16  2  0  0  0  0
  8 17  1  0  0  0  0
  9 11  1  0  0  0  0
  9 15  2  0  0  0  0
 10 13  2  0  0  0  0
 10 18  1  0  0  0  0
 11 14  2  0  0  0  0
 11 21  1  0  0  0  0
 12 16  1  0  0  0  0
 12 23  1  0  0  0  0
 13 24  1  0  0  0  0
 14 25  1  0  0  0  0
 15 27  1  0  0  0  0
 16 28  1  0  0  0  0
 17 18  2  0  0  0  0
 17 29  1  0  0  0  0
 18 30  1  0  0  0  0
 19 22  1  0  0  0  0
 19 23  2  0  0  0  0
 19 28  1  0  0  0  0
 20 24  1  0  0  0  0
 20 25  1  0  0  0  0
 20 26  2  0  0  0  0
 22 27  1  0  0  0  0
  1 31  1  0  0  0  0
  2 32  1  0  0  0  0
  3 33  1  0  0  0  0
  4 34  1  0  0  0  0
  5 35  1  0  0  0  0
  6 36  1  0  0  0  0
  7 37  1  0  0  0  0
  8 38  1  0  0  0  0
  9 39  1  0  0  0  0
 10 40  1  0  0  0  0
 21 41  1  0  0  0  0
 21 42  1  0  0  0  0
 21 43  1  0  0  0  0
 22 44  1  0  0  0  0
 22 45  1  0  0  0  0
 24 46  1  0  0  0  0
 25 47  1  0  0  0  0
M  END
> <Name>
Molecule1_Diflapolin

> <SourceTag>
Molecule1_Diflapolin

> <Activity_sEH>
23

> <Activity_FLAP>
0.23

> <Gold.Version>
5.2

> <Gold.Id.Protein>
6HGV|6HGV_protein|mol2

> <Gold.PLP.Fitness>
75.1245

> <Gold.PLP.PLP>
-73.6839

> <Gold.PLP.part.hbond>
-6.5767

> <Gold.PLP.part.metal>
0.0000

> <Gold.PLP.part.buried>
3.6657

> <Gold.PLP.part.nonpolar>
-70.4412

> <Gold.PLP.part.repulsive>
0.0652

> <Gold.PLP.ligand.clash>
1.3723

> <Gold.PLP.ligand.torsion>
0.4022

> <Gold.PLP.Chemscore.Hbond>
0.8582

> <Gold.PLP.Chemscore.CHOScore>
0.0000

> <Gold.PLP.Chemscore.Metal>
0.0000

> <Gold.Chemscore.Hbonds>
donor molecule, donor type, donor heavy atom, donor atom, acceptor molecule, acceptor atom, score
      L1  H    24    46       P1  1931  0.59
      P1  H  1247  3847       L1    26  0.27

> <Gold.PLP.Chemscore.Internal.Correction>
0.3488

> <Gold.Protein.RotatedTorsions>
[ 3525  925  924  922 ] final  148.33 input   59.99 | X-H torsion
[ 3781 1176 1175 1172 ] final  158.37 input   60.00 | X-H torsion
[ 4531 1957 1955 1953 ] final   22.91 input   60.00 | X-H torsion
[ 3847 1247 1246 1244 ] final  -49.60 input   60.00 | X-H torsion
[ 4507 1931 1930 1928 ] final -155.01 input   60.00 | X-H torsion
[ 3677 1070 1069 1066 ] final   47.44 input   60.00 | X-H torsion

> <Gold.Protein.ActiveResidues>
 GLY266  PHE267  PRO268  GLU269  MET310  HIS334  ASP335  TRP336  GLY337  GLY338 
 MET339  LEU340  TRP342  TYR343  LEU358  ASN359  THR360  PRO361  ILE363  ALA365 
 MET369  SER370  PRO371  LEU372  GLU373  SER374  ILE375  LYS376  ALA377  ASN378 
 VAL380  PHE381  ASP382  TYR383  GLN384  PHE387  GLN388  LEU397  SER407  LEU408 
 PHE409  ARG410  LEU417  MET419  LEU428  PHE429  PHE459  TRP465  TYR466  ASN468 
 MET469  GLU470  ASN472  TRP473  ALA476  ASP496  PHE497  VAL498  LEU499  MET503 
 HIS524  TRP525 

> <Gold.Protein.RotatedAtoms>
   -2.0591  -30.2708  -29.8810 H   0  0  0  0  0  0  0  0  0  0  0  0  # atno 3525 bound_to 925 
  -12.5811  -22.5910  -30.3385 H   0  0  0  0  0  0  0  0  0  0  0  0  # atno 3677 bound_to 1070
   -9.4048  -36.7088  -32.5952 H   0  0  0  0  0  0  0  0  0  0  0  0  # atno 3781 bound_to 1176
  -16.0654  -28.0280  -37.1793 H   0  0  0  0  0  0  0  0  0  0  0  0  # atno 3847 bound_to 1247
  -13.1431  -24.0502  -40.4053 H   0  0  0  0  0  0  0  0  0  0  0  0  # atno 4507 bound_to 1931
   -3.0455  -32.8198  -36.6587 H   0  0  0  0  0  0  0  0  0  0  0  0  # atno 4531 bound_to 1957
   -3.2719  -29.6624  -30.7792 LP  0  0  0  0  0  0  0  0  0  0  0  0  # atno 5201 bound_to 925 
   -3.4181  -29.7473  -29.1550 LP  0  0  0  0  0  0  0  0  0  0  0  0  # atno 5202 bound_to 925 
  -10.7752  -37.4362  -33.0860 LP  0  0  0  0  0  0  0  0  0  0  0  0  # atno 5205 bound_to 1176
   -9.9352  -36.4893  -34.1178 LP  0  0  0  0  0  0  0  0  0  0  0  0  # atno 5206 bound_to 1176
   -1.4731  -32.5183  -36.9500 LP  0  0  0  0  0  0  0  0  0  0  0  0  # atno 5213 bound_to 1957
   -2.0118  -34.0580  -36.8742 LP  0  0  0  0  0  0  0  0  0  0  0  0  # atno 5214 bound_to 1957
  -14.8019  -27.3369  -37.9369 LP  0  0  0  0  0  0  0  0  0  0  0  0  # atno 5227 bound_to 1247
  -14.6910  -28.8726  -37.3929 LP  0  0  0  0  0  0  0  0  0  0  0  0  # atno 5228 bound_to 1247
  -12.4784  -24.3196  -38.9446 LP  0  0  0  0  0  0  0  0  0  0  0  0  # atno 5245 bound_to 1931
  -13.5727  -25.3680  -39.5528 LP  0  0  0  0  0  0  0  0  0  0  0  0  # atno 5246 bound_to 1931
  -12.1457  -23.8503  -31.2727 LP  0  0  0  0  0  0  0  0  0  0  0  0  # atno 5265 bound_to 1070
  -11.1228  -22.5951  -31.0607 LP  0  0  0  0  0  0  0  0  0  0  0  0  # atno 5266 bound_to 1070

$$$$
MSC-065|Lisa_paper2_min|sdf|12|dock6
  -GOLD-  10202014473D 1   1.00000     0.00000

 63 66  0  0  0  0  0  0  0  0  1 V2000
  -11.0965  -34.2535  -34.8852 C   0  0  0  0  0  0  0  0  0  0  0  0
   -9.8418  -34.6622  -34.4377 C   0  0  0  0  0  0  0  0  0  0  0  0
  -11.3227  -32.9265  -35.2620 C   0  0  0  0  0  0  0  0  0  0  0  0
   -8.7742  -33.7617  -34.3521 C   0  0  0  0  0  0  0  0  0  0  0  0
  -11.8572  -27.0004  -37.1094 C   0  0  0  0  0  0  0  0  0  0  0  0
  -16.9884  -23.2757  -39.5710 C   0  0  0  0  0  0  0  0  0  0  0  0
  -10.8912  -27.7526  -36.4411 C   0  0  0  0  0  0  0  0  0  0  0  0
  -18.3404  -23.0976  -39.8638 C   0  0  0  0  0  0  0  0  0  0  0  0
  -11.6367  -25.2505  -35.4583 C   0  0  0  0  0  0  0  0  0  0  0  0
  -17.5818  -24.5250  -37.5901 C   0  0  0  0  0  0  0  0  0  0  0  0
  -10.6707  -26.0027  -34.7900 C   0  0  0  0  0  0  0  0  0  0  0  0
  -10.2608  -32.0083  -35.1820 C   0  0  0  0  0  0  0  0  0  0  0  0
   -9.0098  -32.4324  -34.7321 C   0  0  0  0  0  0  0  0  0  0  0  0
  -12.2300  -25.7493  -36.6180 C   0  0  0  0  0  0  0  0  0  0  0  0
  -16.6091  -23.9895  -38.4342 C   0  0  0  0  0  0  0  0  0  0  0  0
  -10.2981  -27.2538  -35.2814 C   0  0  0  0  0  0  0  0  0  0  0  0
  -19.3133  -23.6332  -39.0197 C   0  0  0  0  0  0  0  0  0  0  0  0
  -18.9339  -24.3469  -37.8829 C   0  0  0  0  0  0  0  0  0  0  0  0
   -9.0196  -30.2810  -35.2430 C   0  0  0  0  0  0  0  0  0  0  0  0
   -6.8591  -31.1991  -34.4227 C   0  0  0  0  0  0  0  0  0  0  0  0
  -14.5901  -25.1183  -37.3630 C   0  0  0  0  0  0  0  0  0  0  0  0
  -10.0460  -25.4533  -33.5501 C   0  0  0  0  0  0  0  0  0  0  0  0
   -4.5950  -31.6146  -32.6355 C   0  0  0  0  0  0  0  0  0  0  0  0
   -4.6379  -33.9515  -33.5554 C   0  0  0  0  0  0  0  0  0  0  0  0
   -4.2997  -32.0037  -35.1045 C   0  0  0  0  0  0  0  0  0  0  0  0
   -8.5740  -28.8835  -35.4482 C   0  0  0  0  0  0  0  0  0  0  0  0
   -4.9833  -32.4889  -33.8269 C   0  0  0  0  0  0  0  0  0  0  0  0
  -10.2457  -30.6752  -35.4923 N   0  0  0  0  0  0  0  0  0  0  0  0
   -8.2094  -31.2970  -34.7768 N   0  0  0  0  0  0  0  0  0  0  0  0
  -13.1962  -24.9971  -37.2868 N   0  0  0  0  0  0  0  0  0  0  0  0
  -15.2349  -24.1708  -38.1374 N   0  0  0  0  0  0  0  0  0  0  0  0
   -6.2557  -30.1420  -34.5039 O   0  0  0  0  0  0  0  0  0  0  0  0
   -9.3519  -28.0050  -34.6384 O   0  0  0  0  0  0  0  0  0  0  0  0
   -6.3999  -32.4072  -34.0090 O   0  0  0  0  0  0  0  0  0  0  0  0
  -15.3177  -26.2974  -36.4036 S   0  0  0  0  0  0  0  0  0  0  0  0
  -20.9714  -23.3756  -39.4349 Cl  0  0  0  0  0  0  0  0  0  0  0  0
  -20.0923  -25.0324  -36.7977 Cl  0  0  0  0  0  0  0  0  0  0  0  0
  -11.9089  -34.9729  -34.9422 H   0  0  0  0  0  0  0  0  0  0  0  0
   -9.6884  -35.6991  -34.1491 H   0  0  0  0  0  0  0  0  0  0  0  0
  -12.3031  -32.6152  -35.6094 H   0  0  0  0  0  0  0  0  0  0  0  0
   -7.8083  -34.1047  -34.0007 H   0  0  0  0  0  0  0  0  0  0  0  0
  -12.3129  -27.3992  -38.0123 H   0  0  0  0  0  0  0  0  0  0  0  0
  -16.2384  -22.8556  -40.2362 H   0  0  0  0  0  0  0  0  0  0  0  0
  -10.6054  -28.7265  -36.8293 H   0  0  0  0  0  0  0  0  0  0  0  0
  -18.6178  -22.5399  -40.7548 H   0  0  0  0  0  0  0  0  0  0  0  0
  -11.9263  -24.2748  -35.0739 H   0  0  0  0  0  0  0  0  0  0  0  0
  -17.2798  -25.0798  -36.7040 H   0  0  0  0  0  0  0  0  0  0  0  0
  -10.6228  -25.7551  -32.6680 H   0  0  0  0  0  0  0  0  0  0  0  0
   -9.0156  -25.8112  -33.4329 H   0  0  0  0  0  0  0  0  0  0  0  0
  -10.0016  -24.3573  -33.5804 H   0  0  0  0  0  0  0  0  0  0  0  0
   -4.8412  -30.5640  -32.8265 H   0  0  0  0  0  0  0  0  0  0  0  0
   -5.1056  -31.9305  -31.7199 H   0  0  0  0  0  0  0  0  0  0  0  0
   -3.5138  -31.6515  -32.4592 H   0  0  0  0  0  0  0  0  0  0  0  0
   -4.9148  -34.5825  -34.4077 H   0  0  0  0  0  0  0  0  0  0  0  0
   -5.1995  -34.3318  -32.6945 H   0  0  0  0  0  0  0  0  0  0  0  0
   -3.5692  -34.0844  -33.3583 H   0  0  0  0  0  0  0  0  0  0  0  0
   -4.5781  -32.6306  -35.9593 H   0  0  0  0  0  0  0  0  0  0  0  0
   -4.5655  -30.9669  -35.3352 H   0  0  0  0  0  0  0  0  0  0  0  0
   -3.2096  -32.0717  -35.0131 H   0  0  0  0  0  0  0  0  0  0  0  0
   -7.5129  -28.7470  -35.1819 H   0  0  0  0  0  0  0  0  0  0  0  0
   -8.6830  -28.5717  -36.4999 H   0  0  0  0  0  0  0  0  0  0  0  0
  -12.8428  -24.1811  -37.8010 H   0  0  0  0  0  0  0  0  0  0  0  0
  -14.6382  -23.4204  -38.4767 H   0  0  0  0  0  0  0  0  0  0  0  0
  1  2  2  0  0  0  0
  1  3  1  0  0  0  0
  2  4  1  0  0  0  0
  3 12  2  0  0  0  0
  4 13  2  0  0  0  0
  5  7  2  0  0  0  0
  5 14  1  0  0  0  0
  6  8  1  0  0  0  0
  6 15  2  0  0  0  0
  7 16  1  0  0  0  0
  8 17  2  0  0  0  0
  9 11  1  0  0  0  0
  9 14  2  0  0  0  0
 10 15  1  0  0  0  0
 10 18  2  0  0  0  0
 11 16  2  0  0  0  0
 11 22  1  0  0  0  0
 12 13  1  0  0  0  0
 12 28  1  0  0  0  0
 13 29  1  0  0  0  0
 14 30  1  0  0  0  0
 15 31  1  0  0  0  0
 16 33  1  0  0  0  0
 17 18  1  0  0  0  0
 17 36  1  0  0  0  0
 18 37  1  0  0  0  0
 19 26  1  0  0  0  0
 19 28  2  0  0  0  0
 19 29  1  0  0  0  0
 20 29  1  0  0  0  0
 20 32  2  0  0  0  0
 20 34  1  0  0  0  0
 21 30  1  0  0  0  0
 21 31  1  0  0  0  0
 21 35  2  0  0  0  0
 23 27  1  0  0  0  0
 24 27  1  0  0  0  0
 25 27  1  0  0  0  0
 26 33  1  0  0  0  0
 27 34  1  0  0  0  0
  1 38  1  0  0  0  0
  2 39  1  0  0  0  0
  3 40  1  0  0  0  0
  4 41  1  0  0  0  0
  5 42  1  0  0  0  0
  6 43  1  0  0  0  0
  7 44  1  0  0  0  0
  8 45  1  0  0  0  0
  9 46  1  0  0  0  0
 10 47  1  0  0  0  0
 22 48  1  0  0  0  0
 22 49  1  0  0  0  0
 22 50  1  0  0  0  0
 23 51  1  0  0  0  0
 23 52  1  0  0  0  0
 23 53  1  0  0  0  0
 24 54  1  0  0  0  0
 24 55  1  0  0  0  0
 24 56  1  0  0  0  0
 25 57  1  0  0  0  0
 25 58  1  0  0  0  0
 25 59  1  0  0  0  0
 26 60  1  0  0  0  0
 26 61  1  0  0  0  0
 30 62  1  0  0  0  0
 31 63  1  0  0  0  0
M  END
> <Clean Energy>
84.5744

> <SourceTag>
Livi_174a

> <Activity_FLAP>
100

> <Activity_sEH>
0.7

> <Gold.Version>
5.2

> <Gold.Id.Protein>
6HGV|6HGV_protein|mol2

> <Gold.PLP.Fitness>
99.4144

> <Gold.PLP.PLP>
-94.7277

> <Gold.PLP.part.hbond>
-8.6199

> <Gold.PLP.part.metal>
0.0000

> <Gold.PLP.part.buried>
18.4695

> <Gold.PLP.part.nonpolar>
-104.5585

> <Gold.PLP.part.repulsive>
0.1096

> <Gold.PLP.ligand.clash>
0.0000

> <Gold.PLP.ligand.torsion>
1.6415

> <Gold.PLP.Chemscore.Hbond>
1.6524

> <Gold.PLP.Chemscore.CHOScore>
0.0000

> <Gold.PLP.Chemscore.Metal>
0.0000

> <Gold.Chemscore.Hbonds>
donor molecule, donor type, donor heavy atom, donor atom, acceptor molecule, acceptor atom, score
      L1  H    30    62       P1  1931  0.44
      P1  H  1256  3854       L1    28  0.80
      P1  H  1247  3847       L1    35  0.41

> <Gold.PLP.Chemscore.Internal.Correction>
0.8090

> <Gold.Protein.RotatedTorsions>
[ 3525  925  924  922 ] final   81.37 input   59.99 | X-H torsion
[ 3781 1176 1175 1172 ] final  161.84 input   60.00 | X-H torsion
[ 4531 1957 1955 1953 ] final   -2.47 input   60.00 | X-H torsion
[ 3847 1247 1246 1244 ] final  -63.98 input   60.00 | X-H torsion
[ 4507 1931 1930 1928 ] final -100.62 input   60.00 | X-H torsion
[ 3677 1070 1069 1066 ] final  168.52 input   60.00 | X-H torsion

> <Gold.Protein.ActiveResidues>
 GLY266  PHE267  PRO268  GLU269  MET310  HIS334  ASP335  TRP336  GLY337  GLY338 
 MET339  LEU340  TRP342  TYR343  LEU358  ASN359  THR360  PRO361  ILE363  ALA365 
 MET369  SER370  PRO371  LEU372  GLU373  SER374  ILE375  LYS376  ALA377  ASN378 
 VAL380  PHE381  ASP382  TYR383  GLN384  PHE387  GLN388  LEU397  SER407  LEU408 
 PHE409  ARG410  LEU417  MET419  LEU428  PHE429  PHE459  TRP465  TYR466  ASN468 
 MET469  GLU470  ASN472  TRP473  ALA476  ASP496  PHE497  VAL498  LEU499  MET503 
 HIS524  TRP525 

> <Gold.Protein.RotatedAtoms>
   -2.5022  -29.9961  -30.7727 H   0  0  0  0  0  0  0  0  0  0  0  0  # atno 3525 bound_to 925 
  -11.1231  -22.6127  -31.0677 H   0  0  0  0  0  0  0  0  0  0  0  0  # atno 3677 bound_to 1070
   -9.3768  -36.6762  -32.6322 H   0  0  0  0  0  0  0  0  0  0  0  0  # atno 3781 bound_to 1176
  -16.0537  -27.8109  -37.2669 H   0  0  0  0  0  0  0  0  0  0  0  0  # atno 3847 bound_to 1247
  -13.6200  -24.7597  -40.3678 H   0  0  0  0  0  0  0  0  0  0  0  0  # atno 4507 bound_to 1931
   -2.8295  -32.4715  -36.6937 H   0  0  0  0  0  0  0  0  0  0  0  0  # atno 4531 bound_to 1957
   -3.7792  -29.5233  -29.8818 LP  0  0  0  0  0  0  0  0  0  0  0  0  # atno 5201 bound_to 925 
   -2.4645  -30.1630  -29.1545 LP  0  0  0  0  0  0  0  0  0  0  0  0  # atno 5202 bound_to 925 
  -10.7552  -37.4427  -33.0329 LP  0  0  0  0  0  0  0  0  0  0  0  0  # atno 5205 bound_to 1176
   -9.9834  -36.5156  -34.1336 LP  0  0  0  0  0  0  0  0  0  0  0  0  # atno 5206 bound_to 1176
   -1.2840  -32.8845  -36.9923 LP  0  0  0  0  0  0  0  0  0  0  0  0  # atno 5213 bound_to 1957
   -2.4184  -34.0427  -36.7966 LP  0  0  0  0  0  0  0  0  0  0  0  0  # atno 5214 bound_to 1957
  -14.6161  -27.4814  -37.9545 LP  0  0  0  0  0  0  0  0  0  0  0  0  # atno 5227 bound_to 1247
  -14.8885  -28.9467  -37.2871 LP  0  0  0  0  0  0  0  0  0  0  0  0  # atno 5228 bound_to 1247
  -12.5231  -23.8065  -39.6355 LP  0  0  0  0  0  0  0  0  0  0  0  0  # atno 5245 bound_to 1931
  -13.0478  -25.1666  -38.8998 LP  0  0  0  0  0  0  0  0  0  0  0  0  # atno 5246 bound_to 1931
  -12.5753  -22.5735  -30.3343 LP  0  0  0  0  0  0  0  0  0  0  0  0  # atno 5265 bound_to 1070
  -12.1615  -23.8501  -31.2648 LP  0  0  0  0  0  0  0  0  0  0  0  0  # atno 5266 bound_to 1070

$$$$
MSC-065|Lisa_paper2_min|sdf|12|dock3
  -GOLD-  10202014463D 1   1.00000     0.00000

 63 66  0  0  0  0  0  0  0  0  1 V2000
   -3.1975  -29.6765  -33.0985 C   0  0  0  0  0  0  0  0  0  0  0  0
   -3.3670  -31.0485  -33.2722 C   0  0  0  0  0  0  0  0  0  0  0  0
   -4.2121  -28.7816  -33.4506 C   0  0  0  0  0  0  0  0  0  0  0  0
   -4.5523  -31.5711  -33.8014 C   0  0  0  0  0  0  0  0  0  0  0  0
  -11.8557  -27.1688  -37.0000 C   0  0  0  0  0  0  0  0  0  0  0  0
  -16.7792  -23.2724  -39.5856 C   0  0  0  0  0  0  0  0  0  0  0  0
  -10.9107  -27.9402  -36.3235 C   0  0  0  0  0  0  0  0  0  0  0  0
  -18.1251  -23.0652  -39.8870 C   0  0  0  0  0  0  0  0  0  0  0  0
  -11.3884  -25.3084  -35.5311 C   0  0  0  0  0  0  0  0  0  0  0  0
  -17.4122  -24.5247  -37.6189 C   0  0  0  0  0  0  0  0  0  0  0  0
  -10.4434  -26.0797  -34.8547 C   0  0  0  0  0  0  0  0  0  0  0  0
   -5.4098  -29.2898  -33.9841 C   0  0  0  0  0  0  0  0  0  0  0  0
   -5.5650  -30.6664  -34.1519 C   0  0  0  0  0  0  0  0  0  0  0  0
  -12.0946  -25.8529  -36.6038 C   0  0  0  0  0  0  0  0  0  0  0  0
  -16.4227  -24.0022  -38.4515 C   0  0  0  0  0  0  0  0  0  0  0  0
  -10.2046  -27.3957  -35.2509 C   0  0  0  0  0  0  0  0  0  0  0  0
  -19.1148  -23.5878  -39.0543 C   0  0  0  0  0  0  0  0  0  0  0  0
  -18.7583  -24.3175  -37.9203 C   0  0  0  0  0  0  0  0  0  0  0  0
   -7.3549  -29.5460  -34.8078 C   0  0  0  0  0  0  0  0  0  0  0  0
   -7.4684  -32.0191  -35.0403 C   0  0  0  0  0  0  0  0  0  0  0  0
  -14.4357  -25.1721  -37.3648 C   0  0  0  0  0  0  0  0  0  0  0  0
   -9.6967  -25.4808  -33.7088 C   0  0  0  0  0  0  0  0  0  0  0  0
   -8.0522  -34.7973  -35.6800 C   0  0  0  0  0  0  0  0  0  0  0  0
   -6.2424  -35.2900  -34.0093 C   0  0  0  0  0  0  0  0  0  0  0  0
   -8.2864  -34.0150  -33.2993 C   0  0  0  0  0  0  0  0  0  0  0  0
   -8.7014  -29.2364  -35.3416 C   0  0  0  0  0  0  0  0  0  0  0  0
   -7.3117  -34.2899  -34.4435 C   0  0  0  0  0  0  0  0  0  0  0  0
   -6.5273  -28.6151  -34.3959 N   0  0  0  0  0  0  0  0  0  0  0  0
   -6.8374  -30.8204  -34.6894 N   0  0  0  0  0  0  0  0  0  0  0  0
  -13.0399  -25.0816  -37.2806 N   0  0  0  0  0  0  0  0  0  0  0  0
  -15.0547  -24.2130  -38.1460 N   0  0  0  0  0  0  0  0  0  0  0  0
   -8.5955  -32.0312  -35.5071 O   0  0  0  0  0  0  0  0  0  0  0  0
   -9.2809  -28.1664  -34.5985 O   0  0  0  0  0  0  0  0  0  0  0  0
   -6.6478  -33.0681  -34.7799 O   0  0  0  0  0  0  0  0  0  0  0  0
  -15.1949  -26.3316  -36.4061 S   0  0  0  0  0  0  0  0  0  0  0  0
  -20.7643  -23.2942  -39.4799 Cl  0  0  0  0  0  0  0  0  0  0  0  0
  -19.9381  -24.9881  -36.8491 Cl  0  0  0  0  0  0  0  0  0  0  0  0
   -2.2671  -29.2965  -32.6854 H   0  0  0  0  0  0  0  0  0  0  0  0
   -2.5645  -31.7264  -32.9921 H   0  0  0  0  0  0  0  0  0  0  0  0
   -4.0728  -27.7138  -33.3128 H   0  0  0  0  0  0  0  0  0  0  0  0
   -4.6591  -32.6422  -33.9265 H   0  0  0  0  0  0  0  0  0  0  0  0
  -12.4001  -27.6036  -37.8344 H   0  0  0  0  0  0  0  0  0  0  0  0
  -16.0160  -22.8622  -40.2419 H   0  0  0  0  0  0  0  0  0  0  0  0
  -10.7294  -28.9646  -36.6374 H   0  0  0  0  0  0  0  0  0  0  0  0
  -18.3846  -22.4954  -40.7757 H   0  0  0  0  0  0  0  0  0  0  0  0
  -11.5736  -24.2822  -35.2210 H   0  0  0  0  0  0  0  0  0  0  0  0
  -17.1280  -25.0920  -36.7349 H   0  0  0  0  0  0  0  0  0  0  0  0
  -10.2362  -25.6554  -32.7705 H   0  0  0  0  0  0  0  0  0  0  0  0
   -8.6925  -25.9136  -33.6200 H   0  0  0  0  0  0  0  0  0  0  0  0
   -9.5673  -24.3993  -33.8415 H   0  0  0  0  0  0  0  0  0  0  0  0
   -8.8206  -34.0822  -35.9948 H   0  0  0  0  0  0  0  0  0  0  0  0
   -7.3688  -34.9651  -36.5189 H   0  0  0  0  0  0  0  0  0  0  0  0
   -8.5739  -35.7370  -35.4652 H   0  0  0  0  0  0  0  0  0  0  0  0
   -5.7086  -34.9300  -33.1224 H   0  0  0  0  0  0  0  0  0  0  0  0
   -5.4871  -35.4187  -34.7931 H   0  0  0  0  0  0  0  0  0  0  0  0
   -6.6745  -36.2695  -33.7801 H   0  0  0  0  0  0  0  0  0  0  0  0
   -7.7556  -33.6510  -32.4122 H   0  0  0  0  0  0  0  0  0  0  0  0
   -9.0393  -33.2716  -33.5808 H   0  0  0  0  0  0  0  0  0  0  0  0
   -8.8009  -34.9341  -32.9963 H   0  0  0  0  0  0  0  0  0  0  0  0
   -8.6645  -28.9377  -36.4022 H   0  0  0  0  0  0  0  0  0  0  0  0
   -9.3748  -30.1067  -35.2772 H   0  0  0  0  0  0  0  0  0  0  0  0
  -12.6654  -24.2753  -37.7953 H   0  0  0  0  0  0  0  0  0  0  0  0
  -14.4394  -23.4772  -38.4841 H   0  0  0  0  0  0  0  0  0  0  0  0
  1  2  2  0  0  0  0
  1  3  1  0  0  0  0
  2  4  1  0  0  0  0
  3 12  2  0  0  0  0
  4 13  2  0  0  0  0
  5  7  2  0  0  0  0
  5 14  1  0  0  0  0
  6  8  1  0  0  0  0
  6 15  2  0  0  0  0
  7 16  1  0  0  0  0
  8 17  2  0  0  0  0
  9 11  1  0  0  0  0
  9 14  2  0  0  0  0
 10 15  1  0  0  0  0
 10 18  2  0  0  0  0
 11 16  2  0  0  0  0
 11 22  1  0  0  0  0
 12 13  1  0  0  0  0
 12 28  1  0  0  0  0
 13 29  1  0  0  0  0
 14 30  1  0  0  0  0
 15 31  1  0  0  0  0
 16 33  1  0  0  0  0
 17 18  1  0  0  0  0
 17 36  1  0  0  0  0
 18 37  1  0  0  0  0
 19 26  1  0  0  0  0
 19 28  2  0  0  0  0
 19 29  1  0  0  0  0
 20 29  1  0  0  0  0
 20 32  2  0  0  0  0
 20 34  1  0  0  0  0
 21 30  1  0  0  0  0
 21 31  1  0  0  0  0
 21 35  2  0  0  0  0
 23 27  1  0  0  0  0
 24 27  1  0  0  0  0
 25 27  1  0  0  0  0
 26 33  1  0  0  0  0
 27 34  1  0  0  0  0
  1 38  1  0  0  0  0
  2 39  1  0  0  0  0
  3 40  1  0  0  0  0
  4 41  1  0  0  0  0
  5 42  1  0  0  0  0
  6 43  1  0  0  0  0
  7 44  1  0  0  0  0
  8 45  1  0  0  0  0
  9 46  1  0  0  0  0
 10 47  1  0  0  0  0
 22 48  1  0  0  0  0
 22 49  1  0  0  0  0
 22 50  1  0  0  0  0
 23 51  1  0  0  0  0
 23 52  1  0  0  0  0
 23 53  1  0  0  0  0
 24 54  1  0  0  0  0
 24 55  1  0  0  0  0
 24 56  1  0  0  0  0
 25 57  1  0  0  0  0
 25 58  1  0  0  0  0
 25 59  1  0  0  0  0
 26 60  1  0  0  0  0
 26 61  1  0  0  0  0
 30 62  1  0  0  0  0
 31 63  1  0  0  0  0
M  END
> <Clean Energy>
84.5744

> <SourceTag>
Livi_174a

> <Activity_FLAP>
100

> <Activity_sEH>
0.7

> <Gold.Version>
5.2

> <Gold.Id.Protein>
6HGV|6HGV_protein|mol2

> <Gold.PLP.Fitness>
98.9700

> <Gold.PLP.PLP>
-97.5286

> <Gold.PLP.part.hbond>
-6.6203

> <Gold.PLP.part.metal>
0.0000

> <Gold.PLP.part.buried>
15.9091

> <Gold.PLP.part.nonpolar>
-105.2445

> <Gold.PLP.part.repulsive>
0.0643

> <Gold.PLP.ligand.clash>
0.2462

> <Gold.PLP.ligand.torsion>
1.9750

> <Gold.PLP.Chemscore.Hbond>
0.8544

> <Gold.PLP.Chemscore.CHOScore>
0.0000

> <Gold.PLP.Chemscore.Metal>
0.0000

> <Gold.Chemscore.Hbonds>
donor molecule, donor type, donor heavy atom, donor atom, acceptor molecule, acceptor atom, score
      L1  H    30    62       P1  1931  0.43
      P1  H  1247  3847       L1    35  0.42

> <Gold.PLP.Chemscore.Internal.Correction>
0.8090

> <Gold.Protein.RotatedTorsions>
[ 3525  925  924  922 ] final  -45.21 input   59.99 | X-H torsion
[ 3781 1176 1175 1172 ] final  106.68 input   60.00 | X-H torsion
[ 4531 1957 1955 1953 ] final  -91.63 input   60.00 | X-H torsion
[ 3847 1247 1246 1244 ] final  -77.50 input   60.00 | X-H torsion
[ 4507 1931 1930 1928 ] final -127.82 input   60.00 | X-H torsion
[ 3677 1070 1069 1066 ] final   27.31 input   60.00 | X-H torsion

> <Gold.Protein.ActiveResidues>
 GLY266  PHE267  PRO268  GLU269  MET310  HIS334  ASP335  TRP336  GLY337  GLY338 
 MET339  LEU340  TRP342  TYR343  LEU358  ASN359  THR360  PRO361  ILE363  ALA365 
 MET369  SER370  PRO371  LEU372  GLU373  SER374  ILE375  LYS376  ALA377  ASN378 
 VAL380  PHE381  ASP382  TYR383  GLN384  PHE387  GLN388  LEU397  SER407  LEU408 
 PHE409  ARG410  LEU417  MET419  LEU428  PHE429  PHE459  TRP465  TYR466  ASN468 
 MET469  GLU470  ASN472  TRP473  ALA476  ASP496  PHE497  VAL498  LEU499  MET503 
 HIS524  TRP525 

> <Gold.Protein.RotatedAtoms>
   -3.7643  -29.5371  -29.7757 H   0  0  0  0  0  0  0  0  0  0  0  0  # atno 3525 bound_to 925 
  -12.7444  -22.8644  -30.4139 H   0  0  0  0  0  0  0  0  0  0  0  0  # atno 3677 bound_to 1070
  -10.0226  -37.1995  -32.3857 H   0  0  0  0  0  0  0  0  0  0  0  0  # atno 3781 bound_to 1176
  -15.9932  -27.6220  -37.3629 H   0  0  0  0  0  0  0  0  0  0  0  0  # atno 3847 bound_to 1247
  -13.4210  -24.3833  -40.4797 H   0  0  0  0  0  0  0  0  0  0  0  0  # atno 4507 bound_to 1931
   -1.5382  -32.4577  -36.9390 H   0  0  0  0  0  0  0  0  0  0  0  0  # atno 4531 bound_to 1957
   -2.3829  -30.1927  -29.2190 LP  0  0  0  0  0  0  0  0  0  0  0  0  # atno 5201 bound_to 925 
   -2.5899  -29.9559  -30.8214 LP  0  0  0  0  0  0  0  0  0  0  0  0  # atno 5202 bound_to 925 
  -10.7364  -37.1256  -33.8462 LP  0  0  0  0  0  0  0  0  0  0  0  0  # atno 5205 bound_to 1176
   -9.3517  -36.3058  -33.5686 LP  0  0  0  0  0  0  0  0  0  0  0  0  # atno 5206 bound_to 1176
   -1.9259  -34.0374  -36.8902 LP  0  0  0  0  0  0  0  0  0  0  0  0  # atno 5213 bound_to 1957
   -3.0767  -32.9036  -36.6518 LP  0  0  0  0  0  0  0  0  0  0  0  0  # atno 5214 bound_to 1957
  -14.4740  -27.6516  -37.9452 LP  0  0  0  0  0  0  0  0  0  0  0  0  # atno 5227 bound_to 1247
  -15.0915  -28.9667  -37.1997 LP  0  0  0  0  0  0  0  0  0  0  0  0  # atno 5228 bound_to 1247
  -12.4306  -23.9991  -39.2471 LP  0  0  0  0  0  0  0  0  0  0  0  0  # atno 5245 bound_to 1931
  -13.3407  -25.3531  -39.1755 LP  0  0  0  0  0  0  0  0  0  0  0  0  # atno 5246 bound_to 1931
  -11.8430  -23.8006  -31.3932 LP  0  0  0  0  0  0  0  0  0  0  0  0  # atno 5265 bound_to 1070
  -11.2611  -22.3695  -30.8643 LP  0  0  0  0  0  0  0  0  0  0  0  0  # atno 5266 bound_to 1070

$$$$
MSC-065|Lisa_paper2_min|sdf|12|dock7
  -GOLD-  10202014473D 1   1.00000     0.00000

 63 66  0  0  0  0  0  0  0  0  1 V2000
   -3.2117  -29.6510  -33.1866 C   0  0  0  0  0  0  0  0  0  0  0  0
   -3.3719  -31.0256  -33.3481 C   0  0  0  0  0  0  0  0  0  0  0  0
   -4.2607  -28.7717  -33.4703 C   0  0  0  0  0  0  0  0  0  0  0  0
   -4.5820  -31.5664  -33.7968 C   0  0  0  0  0  0  0  0  0  0  0  0
  -12.0825  -27.3326  -36.7124 C   0  0  0  0  0  0  0  0  0  0  0  0
  -17.0611  -23.4276  -39.3091 C   0  0  0  0  0  0  0  0  0  0  0  0
  -11.1071  -28.0458  -36.0155 C   0  0  0  0  0  0  0  0  0  0  0  0
  -18.4208  -23.1976  -39.5179 C   0  0  0  0  0  0  0  0  0  0  0  0
  -11.4017  -25.3046  -35.5896 C   0  0  0  0  0  0  0  0  0  0  0  0
  -17.5811  -24.6990  -37.3217 C   0  0  0  0  0  0  0  0  0  0  0  0
  -10.4263  -26.0178  -34.8927 C   0  0  0  0  0  0  0  0  0  0  0  0
   -5.4837  -29.2983  -33.9225 C   0  0  0  0  0  0  0  0  0  0  0  0
   -5.6291  -30.6773  -34.0792 C   0  0  0  0  0  0  0  0  0  0  0  0
  -12.2298  -25.9620  -36.4994 C   0  0  0  0  0  0  0  0  0  0  0  0
  -16.6412  -24.1784  -38.2111 C   0  0  0  0  0  0  0  0  0  0  0  0
  -10.2791  -27.3884  -35.1056 C   0  0  0  0  0  0  0  0  0  0  0  0
  -19.3609  -23.7183  -38.6285 C   0  0  0  0  0  0  0  0  0  0  0  0
  -18.9410  -24.4690  -37.5304 C   0  0  0  0  0  0  0  0  0  0  0  0
   -7.4755  -29.5844  -34.6143 C   0  0  0  0  0  0  0  0  0  0  0  0
   -7.5673  -32.0592  -34.8381 C   0  0  0  0  0  0  0  0  0  0  0  0
  -14.6053  -25.2794  -37.1431 C   0  0  0  0  0  0  0  0  0  0  0  0
   -9.5486  -25.2981  -33.9226 C   0  0  0  0  0  0  0  0  0  0  0  0
   -8.0796  -34.8097  -35.6196 C   0  0  0  0  0  0  0  0  0  0  0  0
   -6.2421  -35.3454  -33.9930 C   0  0  0  0  0  0  0  0  0  0  0  0
   -8.3141  -34.1706  -33.1965 C   0  0  0  0  0  0  0  0  0  0  0  0
   -8.8590  -29.2955  -35.0570 C   0  0  0  0  0  0  0  0  0  0  0  0
   -7.3425  -34.3526  -34.3616 C   0  0  0  0  0  0  0  0  0  0  0  0
   -6.6361  -28.6409  -34.2588 N   0  0  0  0  0  0  0  0  0  0  0  0
   -6.9322  -30.8508  -34.5304 N   0  0  0  0  0  0  0  0  0  0  0  0
  -13.2054  -25.2489  -37.1967 N   0  0  0  0  0  0  0  0  0  0  0  0
  -15.2593  -24.4123  -37.9997 N   0  0  0  0  0  0  0  0  0  0  0  0
   -8.7227  -32.0887  -35.2284 O   0  0  0  0  0  0  0  0  0  0  0  0
   -9.3273  -28.1035  -34.4306 O   0  0  0  0  0  0  0  0  0  0  0  0
   -6.7156  -33.0956  -34.6328 O   0  0  0  0  0  0  0  0  0  0  0  0
  -15.3132  -26.2491  -35.9603 S   0  0  0  0  0  0  0  0  0  0  0  0
  -21.0304  -23.3960  -38.9399 Cl  0  0  0  0  0  0  0  0  0  0  0  0
  -20.0572  -25.1385  -36.3925 Cl  0  0  0  0  0  0  0  0  0  0  0  0
   -2.2615  -29.2567  -32.8366 H   0  0  0  0  0  0  0  0  0  0  0  0
   -2.5424  -31.6911  -33.1222 H   0  0  0  0  0  0  0  0  0  0  0  0
   -4.1285  -27.7017  -33.3424 H   0  0  0  0  0  0  0  0  0  0  0  0
   -4.6808  -32.6391  -33.9143 H   0  0  0  0  0  0  0  0  0  0  0  0
  -12.7222  -27.8554  -37.4189 H   0  0  0  0  0  0  0  0  0  0  0  0
  -16.3369  -23.0186  -40.0091 H   0  0  0  0  0  0  0  0  0  0  0  0
  -10.9977  -29.1134  -36.1861 H   0  0  0  0  0  0  0  0  0  0  0  0
  -18.7301  -22.6116  -40.3798 H   0  0  0  0  0  0  0  0  0  0  0  0
  -11.5153  -24.2357  -35.4226 H   0  0  0  0  0  0  0  0  0  0  0  0
  -17.2475  -25.2828  -36.4661 H   0  0  0  0  0  0  0  0  0  0  0  0
  -10.0007  -25.3042  -32.9239 H   0  0  0  0  0  0  0  0  0  0  0  0
   -8.5583  -25.7662  -33.8607 H   0  0  0  0  0  0  0  0  0  0  0  0
   -9.3903  -24.2562  -34.2283 H   0  0  0  0  0  0  0  0  0  0  0  0
   -8.8703  -34.0998  -35.8875 H   0  0  0  0  0  0  0  0  0  0  0  0
   -7.3994  -34.9104  -36.4716 H   0  0  0  0  0  0  0  0  0  0  0  0
   -8.5732  -35.7744  -35.4548 H   0  0  0  0  0  0  0  0  0  0  0  0
   -5.7105  -35.0215  -33.0909 H   0  0  0  0  0  0  0  0  0  0  0  0
   -5.4906  -35.4082  -34.7883 H   0  0  0  0  0  0  0  0  0  0  0  0
   -6.6450  -36.3480  -33.8168 H   0  0  0  0  0  0  0  0  0  0  0  0
   -7.7856  -33.8427  -32.2941 H   0  0  0  0  0  0  0  0  0  0  0  0
   -9.0898  -33.4338  -33.4297 H   0  0  0  0  0  0  0  0  0  0  0  0
   -8.8003  -35.1195  -32.9426 H   0  0  0  0  0  0  0  0  0  0  0  0
   -8.9208  -29.1570  -36.1489 H   0  0  0  0  0  0  0  0  0  0  0  0
   -9.5487  -30.1158  -34.7987 H   0  0  0  0  0  0  0  0  0  0  0  0
  -12.8515  -24.5450  -37.8559 H   0  0  0  0  0  0  0  0  0  0  0  0
  -14.6517  -23.7650  -38.4957 H   0  0  0  0  0  0  0  0  0  0  0  0
  1  2  2  0  0  0  0
  1  3  1  0  0  0  0
  2  4  1  0  0  0  0
  3 12  2  0  0  0  0
  4 13  2  0  0  0  0
  5  7  2  0  0  0  0
  5 14  1  0  0  0  0
  6  8  1  0  0  0  0
  6 15  2  0  0  0  0
  7 16  1  0  0  0  0
  8 17  2  0  0  0  0
  9 11  1  0  0  0  0
  9 14  2  0  0  0  0
 10 15  1  0  0  0  0
 10 18  2  0  0  0  0
 11 16  2  0  0  0  0
 11 22  1  0  0  0  0
 12 13  1  0  0  0  0
 12 28  1  0  0  0  0
 13 29  1  0  0  0  0
 14 30  1  0  0  0  0
 15 31  1  0  0  0  0
 16 33  1  0  0  0  0
 17 18  1  0  0  0  0
 17 36  1  0  0  0  0
 18 37  1  0  0  0  0
 19 26  1  0  0  0  0
 19 28  2  0  0  0  0
 19 29  1  0  0  0  0
 20 29  1  0  0  0  0
 20 32  2  0  0  0  0
 20 34  1  0  0  0  0
 21 30  1  0  0  0  0
 21 31  1  0  0  0  0
 21 35  2  0  0  0  0
 23 27  1  0  0  0  0
 24 27  1  0  0  0  0
 25 27  1  0  0  0  0
 26 33  1  0  0  0  0
 27 34  1  0  0  0  0
  1 38  1  0  0  0  0
  2 39  1  0  0  0  0
  3 40  1  0  0  0  0
  4 41  1  0  0  0  0
  5 42  1  0  0  0  0
  6 43  1  0  0  0  0
  7 44  1  0  0  0  0
  8 45  1  0  0  0  0
  9 46  1  0  0  0  0
 10 47  1  0  0  0  0
 22 48  1  0  0  0  0
 22 49  1  0  0  0  0
 22 50  1  0  0  0  0
 23 51  1  0  0  0  0
 23 52  1  0  0  0  0
 23 53  1  0  0  0  0
 24 54  1  0  0  0  0
 24 55  1  0  0  0  0
 24 56  1  0  0  0  0
 25 57  1  0  0  0  0
 25 58  1  0  0  0  0
 25 59  1  0  0  0  0
 26 60  1  0  0  0  0
 26 61  1  0  0  0  0
 30 62  1  0  0  0  0
 31 63  1  0  0  0  0
M  END
> <Clean Energy>
84.5744

> <SourceTag>
Livi_174a

> <Activity_FLAP>
100

> <Activity_sEH>
0.7

> <Gold.Version>
5.2

> <Gold.Id.Protein>
6HGV|6HGV_protein|mol2

> <Gold.PLP.Fitness>
97.9318

> <Gold.PLP.PLP>
-96.6881

> <Gold.PLP.part.hbond>
-6.6710

> <Gold.PLP.part.metal>
0.0000

> <Gold.PLP.part.buried>
11.9499

> <Gold.PLP.part.nonpolar>
-102.3215

> <Gold.PLP.part.repulsive>
0.0582

> <Gold.PLP.ligand.clash>
0.1857

> <Gold.PLP.ligand.torsion>
1.9503

> <Gold.PLP.Chemscore.Hbond>
0.7828

> <Gold.PLP.Chemscore.CHOScore>
0.0000

> <Gold.PLP.Chemscore.Metal>
0.0000

> <Gold.Chemscore.Hbonds>
donor molecule, donor type, donor heavy atom, donor atom, acceptor molecule, acceptor atom, score
      L1  H    30    62       P1  1931  0.68
      P1  H  1247  3847       L1    35  0.11

> <Gold.PLP.Chemscore.Internal.Correction>
0.7652

> <Gold.Protein.RotatedTorsions>
[ 3525  925  924  922 ] final   26.08 input   59.99 | X-H torsion
[ 3781 1176 1175 1172 ] final -165.61 input   60.00 | X-H torsion
[ 4531 1957 1955 1953 ] final  -70.41 input   60.00 | X-H torsion
[ 3847 1247 1246 1244 ] final  -40.31 input   60.00 | X-H torsion
[ 4507 1931 1930 1928 ] final -141.36 input   60.00 | X-H torsion
[ 3677 1070 1069 1066 ] final -163.53 input   60.00 | X-H torsion

> <Gold.Protein.ActiveResidues>
 GLY266  PHE267  PRO268  GLU269  MET310  HIS334  ASP335  TRP336  GLY337  GLY338 
 MET339  LEU340  TRP342  TYR343  LEU358  ASN359  THR360  PRO361  ILE363  ALA365 
 MET369  SER370  PRO371  LEU372  GLU373  SER374  ILE375  LYS376  ALA377  ASN378 
 VAL380  PHE381  ASP382  TYR383  GLN384  PHE387  GLN388  LEU397  SER407  LEU408 
 PHE409  ARG410  LEU417  MET419  LEU428  PHE429  PHE459  TRP465  TYR466  ASN468 
 MET469  GLU470  ASN472  TRP473  ALA476  ASP496  PHE497  VAL498  LEU499  MET503 
 HIS524  TRP525 

> <Gold.Protein.RotatedAtoms>
   -3.2990  -29.6502  -30.7561 H   0  0  0  0  0  0  0  0  0  0  0  0  # atno 3525 bound_to 925 
  -11.1084  -23.0023  -31.2967 H   0  0  0  0  0  0  0  0  0  0  0  0  # atno 3677 bound_to 1070
   -9.2423  -36.4221  -33.0712 H   0  0  0  0  0  0  0  0  0  0  0  0  # atno 3781 bound_to 1176
  -16.0436  -28.1708  -37.1332 H   0  0  0  0  0  0  0  0  0  0  0  0  # atno 3847 bound_to 1247
  -13.2889  -24.2070  -40.4659 H   0  0  0  0  0  0  0  0  0  0  0  0  # atno 4507 bound_to 1931
   -1.8206  -32.2680  -36.8820 H   0  0  0  0  0  0  0  0  0  0  0  0  # atno 4531 bound_to 1957
   -3.3900  -29.7613  -29.1352 LP  0  0  0  0  0  0  0  0  0  0  0  0  # atno 5201 bound_to 925 
   -2.0513  -30.2734  -29.9178 LP  0  0  0  0  0  0  0  0  0  0  0  0  # atno 5202 bound_to 925 
  -10.4529  -37.4027  -32.6013 LP  0  0  0  0  0  0  0  0  0  0  0  0  # atno 5205 bound_to 1176
  -10.4211  -36.8115  -34.1232 LP  0  0  0  0  0  0  0  0  0  0  0  0  # atno 5206 bound_to 1176
   -1.6204  -33.8818  -36.9456 LP  0  0  0  0  0  0  0  0  0  0  0  0  # atno 5213 bound_to 1957
   -3.0978  -33.2503  -36.6538 LP  0  0  0  0  0  0  0  0  0  0  0  0  # atno 5214 bound_to 1957
  -14.9355  -27.2678  -37.9109 LP  0  0  0  0  0  0  0  0  0  0  0  0  # atno 5227 bound_to 1247
  -14.5792  -28.7979  -37.4654 LP  0  0  0  0  0  0  0  0  0  0  0  0  # atno 5228 bound_to 1247
  -12.4368  -24.1466  -39.0809 LP  0  0  0  0  0  0  0  0  0  0  0  0  # atno 5245 bound_to 1931
  -13.4675  -25.3831  -39.3555 LP  0  0  0  0  0  0  0  0  0  0  0  0  # atno 5246 bound_to 1931
  -12.2202  -22.2886  -30.3466 LP  0  0  0  0  0  0  0  0  0  0  0  0  # atno 5265 bound_to 1070
  -12.5313  -23.7426  -31.0218 LP  0  0  0  0  0  0  0  0  0  0  0  0  # atno 5266 bound_to 1070

$$$$
MSC-065|Lisa_paper2_min|sdf|12|dock8
  -GOLD-  10202014473D 1   1.00000     0.00000

 63 66  0  0  0  0  0  0  0  0  1 V2000
   -3.0758  -30.0184  -33.0344 C   0  0  0  0  0  0  0  0  0  0  0  0
   -3.3746  -31.3745  -33.1478 C   0  0  0  0  0  0  0  0  0  0  0  0
   -4.0128  -29.0478  -33.4006 C   0  0  0  0  0  0  0  0  0  0  0  0
   -4.6159  -31.8054  -33.6290 C   0  0  0  0  0  0  0  0  0  0  0  0
  -11.5847  -27.0020  -36.9034 C   0  0  0  0  0  0  0  0  0  0  0  0
  -16.7150  -23.3437  -39.3928 C   0  0  0  0  0  0  0  0  0  0  0  0
  -10.6031  -27.7497  -36.2530 C   0  0  0  0  0  0  0  0  0  0  0  0
  -18.0646  -23.2117  -39.7191 C   0  0  0  0  0  0  0  0  0  0  0  0
  -11.3012  -25.2264  -35.2897 C   0  0  0  0  0  0  0  0  0  0  0  0
  -17.3106  -24.6769  -37.4681 C   0  0  0  0  0  0  0  0  0  0  0  0
  -10.3196  -25.9742  -34.6393 C   0  0  0  0  0  0  0  0  0  0  0  0
   -5.2653  -29.4634  -33.8865 C   0  0  0  0  0  0  0  0  0  0  0  0
   -5.5501  -30.8252  -33.9941 C   0  0  0  0  0  0  0  0  0  0  0  0
  -11.9337  -25.7403  -36.4218 C   0  0  0  0  0  0  0  0  0  0  0  0
  -16.3379  -24.0763  -38.2673 C   0  0  0  0  0  0  0  0  0  0  0  0
   -9.9707  -27.2358  -35.1210 C   0  0  0  0  0  0  0  0  0  0  0  0
  -19.0374  -23.8124  -38.9199 C   0  0  0  0  0  0  0  0  0  0  0  0
  -18.6603  -24.5450  -37.7943 C   0  0  0  0  0  0  0  0  0  0  0  0
   -7.2461  -29.5704  -34.6561 C   0  0  0  0  0  0  0  0  0  0  0  0
   -7.5915  -32.0296  -34.7843 C   0  0  0  0  0  0  0  0  0  0  0  0
  -14.2986  -25.1754  -37.2039 C   0  0  0  0  0  0  0  0  0  0  0  0
   -9.6528  -25.4086  -33.4290 C   0  0  0  0  0  0  0  0  0  0  0  0
   -8.7778  -34.2263  -33.5360 C   0  0  0  0  0  0  0  0  0  0  0  0
   -8.0977  -34.6022  -35.9246 C   0  0  0  0  0  0  0  0  0  0  0  0
   -6.6679  -35.4937  -34.0621 C   0  0  0  0  0  0  0  0  0  0  0  0
   -8.5718  -29.1585  -35.1726 C   0  0  0  0  0  0  0  0  0  0  0  0
   -7.6006  -34.3654  -34.5001 C   0  0  0  0  0  0  0  0  0  0  0  0
   -6.3265  -28.7048  -34.3010 N   0  0  0  0  0  0  0  0  0  0  0  0
   -6.8446  -30.8816  -34.4968 N   0  0  0  0  0  0  0  0  0  0  0  0
  -12.9155  -24.9926  -37.0726 N   0  0  0  0  0  0  0  0  0  0  0  0
  -14.9662  -24.2106  -37.9364 N   0  0  0  0  0  0  0  0  0  0  0  0
   -8.7265  -31.9555  -35.2254 O   0  0  0  0  0  0  0  0  0  0  0  0
   -9.0097  -27.9828  -34.4953 O   0  0  0  0  0  0  0  0  0  0  0  0
   -6.8640  -33.1390  -34.4991 O   0  0  0  0  0  0  0  0  0  0  0  0
  -14.9951  -26.4496  -36.3485 S   0  0  0  0  0  0  0  0  0  0  0  0
  -20.6926  -23.6099  -39.3751 Cl  0  0  0  0  0  0  0  0  0  0  0  0
  -19.8187  -25.3104  -36.7641 Cl  0  0  0  0  0  0  0  0  0  0  0  0
   -2.1042  -29.7103  -32.6577 H   0  0  0  0  0  0  0  0  0  0  0  0
   -2.6306  -32.1124  -32.8578 H   0  0  0  0  0  0  0  0  0  0  0  0
   -3.7729  -27.9929  -33.3099 H   0  0  0  0  0  0  0  0  0  0  0  0
   -4.8234  -32.8661  -33.7077 H   0  0  0  0  0  0  0  0  0  0  0  0
  -12.0709  -27.4125  -37.7848 H   0  0  0  0  0  0  0  0  0  0  0  0
  -15.9650  -22.8729  -40.0232 H   0  0  0  0  0  0  0  0  0  0  0  0
  -10.3358  -28.7319  -36.6336 H   0  0  0  0  0  0  0  0  0  0  0  0
  -18.3402  -22.6385  -40.6008 H   0  0  0  0  0  0  0  0  0  0  0  0
  -11.5723  -24.2426  -34.9129 H   0  0  0  0  0  0  0  0  0  0  0  0
  -17.0104  -25.2460  -36.5905 H   0  0  0  0  0  0  0  0  0  0  0  0
  -10.2036  -25.6917  -32.5243 H   0  0  0  0  0  0  0  0  0  0  0  0
   -8.6216  -25.7717  -33.3380 H   0  0  0  0  0  0  0  0  0  0  0  0
   -9.6023  -24.3137  -33.4791 H   0  0  0  0  0  0  0  0  0  0  0  0
   -8.4252  -34.0563  -32.5125 H   0  0  0  0  0  0  0  0  0  0  0  0
   -9.4356  -33.3982  -33.8192 H   0  0  0  0  0  0  0  0  0  0  0  0
   -9.3722  -35.1469  -33.5092 H   0  0  0  0  0  0  0  0  0  0  0  0
   -7.2564  -34.7026  -36.6198 H   0  0  0  0  0  0  0  0  0  0  0  0
   -8.6901  -33.7505  -36.2779 H   0  0  0  0  0  0  0  0  0  0  0  0
   -8.7135  -35.5049  -35.9928 H   0  0  0  0  0  0  0  0  0  0  0  0
   -5.8234  -35.5936  -34.7535 H   0  0  0  0  0  0  0  0  0  0  0  0
   -6.2722  -35.3220  -33.0558 H   0  0  0  0  0  0  0  0  0  0  0  0
   -7.1905  -36.4570  -34.0711 H   0  0  0  0  0  0  0  0  0  0  0  0
   -8.5429  -28.9420  -36.2531 H   0  0  0  0  0  0  0  0  0  0  0  0
   -9.3291  -29.9456  -35.0237 H   0  0  0  0  0  0  0  0  0  0  0  0
  -12.5881  -24.1280  -37.5203 H   0  0  0  0  0  0  0  0  0  0  0  0
  -14.3978  -23.4114  -38.2057 H   0  0  0  0  0  0  0  0  0  0  0  0
  1  2  2  0  0  0  0
  1  3  1  0  0  0  0
  2  4  1  0  0  0  0
  3 12  2  0  0  0  0
  4 13  2  0  0  0  0
  5  7  2  0  0  0  0
  5 14  1  0  0  0  0
  6  8  1  0  0  0  0
  6 15  2  0  0  0  0
  7 16  1  0  0  0  0
  8 17  2  0  0  0  0
  9 11  1  0  0  0  0
  9 14  2  0  0  0  0
 10 15  1  0  0  0  0
 10 18  2  0  0  0  0
 11 16  2  0  0  0  0
 11 22  1  0  0  0  0
 12 13  1  0  0  0  0
 12 28  1  0  0  0  0
 13 29  1  0  0  0  0
 14 30  1  0  0  0  0
 15 31  1  0  0  0  0
 16 33  1  0  0  0  0
 17 18  1  0  0  0  0
 17 36  1  0  0  0  0
 18 37  1  0  0  0  0
 19 26  1  0  0  0  0
 19 28  2  0  0  0  0
 19 29  1  0  0  0  0
 20 29  1  0  0  0  0
 20 32  2  0  0  0  0
 20 34  1  0  0  0  0
 21 30  1  0  0  0  0
 21 31  1  0  0  0  0
 21 35  2  0  0  0  0
 23 27  1  0  0  0  0
 24 27  1  0  0  0  0
 25 27  1  0  0  0  0
 26 33  1  0  0  0  0
 27 34  1  0  0  0  0
  1 38  1  0  0  0  0
  2 39  1  0  0  0  0
  3 40  1  0  0  0  0
  4 41  1  0  0  0  0
  5 42  1  0  0  0  0
  6 43  1  0  0  0  0
  7 44  1  0  0  0  0
  8 45  1  0  0  0  0
  9 46  1  0  0  0  0
 10 47  1  0  0  0  0
 22 48  1  0  0  0  0
 22 49  1  0  0  0  0
 22 50  1  0  0  0  0
 23 51  1  0  0  0  0
 23 52  1  0  0  0  0
 23 53  1  0  0  0  0
 24 54  1  0  0  0  0
 24 55  1  0  0  0  0
 24 56  1  0  0  0  0
 25 57  1  0  0  0  0
 25 58  1  0  0  0  0
 25 59  1  0  0  0  0
 26 60  1  0  0  0  0
 26 61  1  0  0  0  0
 30 62  1  0  0  0  0
 31 63  1  0  0  0  0
M  END
> <Clean Energy>
84.5744

> <SourceTag>
Livi_174a

> <Activity_FLAP>
100

> <Activity_sEH>
0.7

> <Gold.Version>
5.2

> <Gold.Id.Protein>
6HGV|6HGV_protein|mol2

> <Gold.PLP.Fitness>
97.5879

> <Gold.PLP.PLP>
-97.9848

> <Gold.PLP.part.hbond>
-9.1629

> <Gold.PLP.part.metal>
0.0000

> <Gold.PLP.part.buried>
13.4294

> <Gold.PLP.part.nonpolar>
-102.7633

> <Gold.PLP.part.repulsive>
0.0664

> <Gold.PLP.ligand.clash>
1.8790

> <Gold.PLP.ligand.torsion>
1.4386

> <Gold.PLP.Chemscore.Hbond>
0.6453

> <Gold.PLP.Chemscore.CHOScore>
0.0000

> <Gold.PLP.Chemscore.Metal>
0.0000

> <Gold.Chemscore.Hbonds>
donor molecule, donor type, donor heavy atom, donor atom, acceptor molecule, acceptor atom, score
      L1  H    30    62       P1  1931  0.26
      L1  H    31    63       P1   854  0.01
      P1  H  1247  3847       L1    35  0.38

> <Gold.PLP.Chemscore.Internal.Correction>
0.7652

> <Gold.Protein.RotatedTorsions>
[ 3525  925  924  922 ] final   81.04 input   59.99 | X-H torsion
[ 3781 1176 1175 1172 ] final  -54.51 input   60.00 | X-H torsion
[ 4531 1957 1955 1953 ] final   65.59 input   60.00 | X-H torsion
[ 3847 1247 1246 1244 ] final  -79.42 input   60.00 | X-H torsion
[ 4507 1931 1930 1928 ] final -125.57 input   60.00 | X-H torsion
[ 3677 1070 1069 1066 ] final  154.33 input   60.00 | X-H torsion

> <Gold.Protein.ActiveResidues>
 GLY266  PHE267  PRO268  GLU269  MET310  HIS334  ASP335  TRP336  GLY337  GLY338 
 MET339  LEU340  TRP342  TYR343  LEU358  ASN359  THR360  PRO361  ILE363  ALA365 
 MET369  SER370  PRO371  LEU372  GLU373  SER374  ILE375  LYS376  ALA377  ASN378 
 VAL380  PHE381  ASP382  TYR383  GLN384  PHE387  GLN388  LEU397  SER407  LEU408 
 PHE409  ARG410  LEU417  MET419  LEU428  PHE429  PHE459  TRP465  TYR466  ASN468 
 MET469  GLU470  ASN472  TRP473  ALA476  ASP496  PHE497  VAL498  LEU499  MET503 
 HIS524  TRP525 

> <Gold.Protein.RotatedAtoms>
   -2.5065  -29.9939  -30.7751 H   0  0  0  0  0  0  0  0  0  0  0  0  # atno 3525 bound_to 925 
  -11.2065  -22.4455  -30.9314 H   0  0  0  0  0  0  0  0  0  0  0  0  # atno 3677 bound_to 1070
  -10.3047  -36.7272  -34.1491 H   0  0  0  0  0  0  0  0  0  0  0  0  # atno 3781 bound_to 1176
  -15.9809  -27.5970  -37.3773 H   0  0  0  0  0  0  0  0  0  0  0  0  # atno 3847 bound_to 1247
  -13.4412  -24.4140  -40.4775 H   0  0  0  0  0  0  0  0  0  0  0  0  # atno 4507 bound_to 1931
   -3.0254  -33.5007  -36.6743 H   0  0  0  0  0  0  0  0  0  0  0  0  # atno 4531 bound_to 1957
   -3.7791  -29.5239  -29.8764 LP  0  0  0  0  0  0  0  0  0  0  0  0  # atno 5201 bound_to 925 
   -2.4603  -30.1646  -29.1575 LP  0  0  0  0  0  0  0  0  0  0  0  0  # atno 5202 bound_to 925 
   -9.2504  -36.4753  -32.9354 LP  0  0  0  0  0  0  0  0  0  0  0  0  # atno 5205 bound_to 1176
  -10.5536  -37.4316  -32.7035 LP  0  0  0  0  0  0  0  0  0  0  0  0  # atno 5206 bound_to 1176
   -2.0667  -32.1952  -36.8316 LP  0  0  0  0  0  0  0  0  0  0  0  0  # atno 5213 bound_to 1957
   -1.4384  -33.6955  -36.9769 LP  0  0  0  0  0  0  0  0  0  0  0  0  # atno 5214 bound_to 1957
  -14.4568  -27.6780  -37.9418 LP  0  0  0  0  0  0  0  0  0  0  0  0  # atno 5227 bound_to 1247
  -15.1211  -28.9656  -37.1886 LP  0  0  0  0  0  0  0  0  0  0  0  0  # atno 5228 bound_to 1247
  -12.4330  -23.9775  -39.2771 LP  0  0  0  0  0  0  0  0  0  0  0  0  # atno 5245 bound_to 1931
  -13.3179  -25.3438  -39.1477 LP  0  0  0  0  0  0  0  0  0  0  0  0  # atno 5246 bound_to 1931
  -12.7039  -22.7625  -30.3787 LP  0  0  0  0  0  0  0  0  0  0  0  0  # atno 5265 bound_to 1070
  -11.9489  -23.8295  -31.3576 LP  0  0  0  0  0  0  0  0  0  0  0  0  # atno 5266 bound_to 1070

$$$$
MSC-065|Lisa_paper2_min|sdf|12|dock9
  -GOLD-  10202014473D 1   1.00000     0.00000

 63 66  0  0  0  0  0  0  0  0  1 V2000
   -2.9726  -29.5010  -33.2539 C   0  0  0  0  0  0  0  0  0  0  0  0
   -3.1767  -30.8787  -33.2138 C   0  0  0  0  0  0  0  0  0  0  0  0
   -4.0089  -28.6361  -33.6175 C   0  0  0  0  0  0  0  0  0  0  0  0
   -4.4191  -31.4370  -33.5343 C   0  0  0  0  0  0  0  0  0  0  0  0
  -11.6746  -27.1590  -36.8153 C   0  0  0  0  0  0  0  0  0  0  0  0
  -16.7477  -23.3581  -39.3980 C   0  0  0  0  0  0  0  0  0  0  0  0
  -10.7177  -27.8827  -36.1038 C   0  0  0  0  0  0  0  0  0  0  0  0
  -18.0993  -23.1653  -39.6832 C   0  0  0  0  0  0  0  0  0  0  0  0
  -11.3858  -25.2942  -35.3067 C   0  0  0  0  0  0  0  0  0  0  0  0
  -17.3436  -24.7118  -37.4877 C   0  0  0  0  0  0  0  0  0  0  0  0
  -10.4289  -26.0178  -34.5952 C   0  0  0  0  0  0  0  0  0  0  0  0
   -5.2640  -29.1804  -33.9430 C   0  0  0  0  0  0  0  0  0  0  0  0
   -5.4532  -30.5623  -33.8980 C   0  0  0  0  0  0  0  0  0  0  0  0
  -12.0086  -25.8647  -36.4168 C   0  0  0  0  0  0  0  0  0  0  0  0
  -16.3698  -24.1314  -38.3003 C   0  0  0  0  0  0  0  0  0  0  0  0
  -10.0949  -27.3122  -34.9938 C   0  0  0  0  0  0  0  0  0  0  0  0
  -19.0733  -23.7458  -38.8706 C   0  0  0  0  0  0  0  0  0  0  0  0
  -18.6954  -24.5191  -37.7729 C   0  0  0  0  0  0  0  0  0  0  0  0
   -7.2908  -29.4950  -34.5094 C   0  0  0  0  0  0  0  0  0  0  0  0
   -7.4588  -31.9725  -34.3786 C   0  0  0  0  0  0  0  0  0  0  0  0
  -14.3636  -25.2282  -37.1734 C   0  0  0  0  0  0  0  0  0  0  0  0
   -9.7722  -25.3916  -33.4095 C   0  0  0  0  0  0  0  0  0  0  0  0
   -6.1274  -35.3375  -33.8472 C   0  0  0  0  0  0  0  0  0  0  0  0
   -8.3385  -34.3798  -33.1377 C   0  0  0  0  0  0  0  0  0  0  0  0
   -7.7477  -34.4896  -35.5764 C   0  0  0  0  0  0  0  0  0  0  0  0
   -8.6839  -29.2257  -34.9341 C   0  0  0  0  0  0  0  0  0  0  0  0
   -7.2064  -34.3018  -34.1599 C   0  0  0  0  0  0  0  0  0  0  0  0
   -6.4118  -28.5391  -34.3234 N   0  0  0  0  0  0  0  0  0  0  0  0
   -6.7787  -30.7544  -34.2691 N   0  0  0  0  0  0  0  0  0  0  0  0
  -12.9657  -25.1411  -37.1288 N   0  0  0  0  0  0  0  0  0  0  0  0
  -14.9960  -24.3276  -38.0113 N   0  0  0  0  0  0  0  0  0  0  0  0
   -8.6303  -32.0184  -34.7155 O   0  0  0  0  0  0  0  0  0  0  0  0
   -9.1582  -28.0362  -34.3072 O   0  0  0  0  0  0  0  0  0  0  0  0
   -6.6272  -32.9973  -34.0627 O   0  0  0  0  0  0  0  0  0  0  0  0
  -15.1058  -26.3057  -36.1111 S   0  0  0  0  0  0  0  0  0  0  0  0
  -20.7308  -23.4674  -39.2743 Cl  0  0  0  0  0  0  0  0  0  0  0  0
  -19.8551  -25.2622  -36.7279 Cl  0  0  0  0  0  0  0  0  0  0  0  0
   -1.9980  -29.0930  -33.0003 H   0  0  0  0  0  0  0  0  0  0  0  0
   -2.3564  -31.5329  -32.9289 H   0  0  0  0  0  0  0  0  0  0  0  0
   -3.8425  -27.5637  -33.6469 H   0  0  0  0  0  0  0  0  0  0  0  0
   -4.5518  -32.5118  -33.4955 H   0  0  0  0  0  0  0  0  0  0  0  0
  -12.1535  -27.6138  -37.6788 H   0  0  0  0  0  0  0  0  0  0  0  0
  -15.9968  -22.9026  -40.0385 H   0  0  0  0  0  0  0  0  0  0  0  0
  -10.4620  -28.8906  -36.4197 H   0  0  0  0  0  0  0  0  0  0  0  0
  -18.3755  -22.5610  -40.5436 H   0  0  0  0  0  0  0  0  0  0  0  0
  -11.6452  -24.2848  -34.9948 H   0  0  0  0  0  0  0  0  0  0  0  0
  -17.0427  -25.3130  -36.6320 H   0  0  0  0  0  0  0  0  0  0  0  0
  -10.3430  -25.6099  -32.4993 H   0  0  0  0  0  0  0  0  0  0  0  0
   -8.7493  -25.7661  -33.2786 H   0  0  0  0  0  0  0  0  0  0  0  0
   -9.7009  -24.3027  -33.5246 H   0  0  0  0  0  0  0  0  0  0  0  0
   -5.3131  -35.2848  -34.5786 H   0  0  0  0  0  0  0  0  0  0  0  0
   -5.7064  -35.1921  -32.8470 H   0  0  0  0  0  0  0  0  0  0  0  0
   -6.5321  -36.3544  -33.9079 H   0  0  0  0  0  0  0  0  0  0  0  0
   -9.1150  -33.6384  -33.3582 H   0  0  0  0  0  0  0  0  0  0  0  0
   -7.9712  -34.1519  -32.1305 H   0  0  0  0  0  0  0  0  0  0  0  0
   -8.8009  -35.3720  -33.1219 H   0  0  0  0  0  0  0  0  0  0  0  0
   -8.5218  -33.7467  -35.8009 H   0  0  0  0  0  0  0  0  0  0  0  0
   -6.9549  -34.4001  -36.3262 H   0  0  0  0  0  0  0  0  0  0  0  0
   -8.2211  -35.4720  -35.6857 H   0  0  0  0  0  0  0  0  0  0  0  0
   -8.7627  -29.0937  -36.0257 H   0  0  0  0  0  0  0  0  0  0  0  0
   -9.3596  -30.0531  -34.6619 H   0  0  0  0  0  0  0  0  0  0  0  0
  -12.5995  -24.3792  -37.7123 H   0  0  0  0  0  0  0  0  0  0  0  0
  -14.3853  -23.6240  -38.4190 H   0  0  0  0  0  0  0  0  0  0  0  0
  1  2  2  0  0  0  0
  1  3  1  0  0  0  0
  2  4  1  0  0  0  0
  3 12  2  0  0  0  0
  4 13  2  0  0  0  0
  5  7  2  0  0  0  0
  5 14  1  0  0  0  0
  6  8  1  0  0  0  0
  6 15  2  0  0  0  0
  7 16  1  0  0  0  0
  8 17  2  0  0  0  0
  9 11  1  0  0  0  0
  9 14  2  0  0  0  0
 10 15  1  0  0  0  0
 10 18  2  0  0  0  0
 11 16  2  0  0  0  0
 11 22  1  0  0  0  0
 12 13  1  0  0  0  0
 12 28  1  0  0  0  0
 13 29  1  0  0  0  0
 14 30  1  0  0  0  0
 15 31  1  0  0  0  0
 16 33  1  0  0  0  0
 17 18  1  0  0  0  0
 17 36  1  0  0  0  0
 18 37  1  0  0  0  0
 19 26  1  0  0  0  0
 19 28  2  0  0  0  0
 19 29  1  0  0  0  0
 20 29  1  0  0  0  0
 20 32  2  0  0  0  0
 20 34  1  0  0  0  0
 21 30  1  0  0  0  0
 21 31  1  0  0  0  0
 21 35  2  0  0  0  0
 23 27  1  0  0  0  0
 24 27  1  0  0  0  0
 25 27  1  0  0  0  0
 26 33  1  0  0  0  0
 27 34  1  0  0  0  0
  1 38  1  0  0  0  0
  2 39  1  0  0  0  0
  3 40  1  0  0  0  0
  4 41  1  0  0  0  0
  5 42  1  0  0  0  0
  6 43  1  0  0  0  0
  7 44  1  0  0  0  0
  8 45  1  0  0  0  0
  9 46  1  0  0  0  0
 10 47  1  0  0  0  0
 22 48  1  0  0  0  0
 22 49  1  0  0  0  0
 22 50  1  0  0  0  0
 23 51  1  0  0  0  0
 23 52  1  0  0  0  0
 23 53  1  0  0  0  0
 24 54  1  0  0  0  0
 24 55  1  0  0  0  0
 24 56  1  0  0  0  0
 25 57  1  0  0  0  0
 25 58  1  0  0  0  0
 25 59  1  0  0  0  0
 26 60  1  0  0  0  0
 26 61  1  0  0  0  0
 30 62  1  0  0  0  0
 31 63  1  0  0  0  0
M  END
> <Clean Energy>
84.5744

> <SourceTag>
Livi_174a

> <Activity_FLAP>
100

> <Activity_sEH>
0.7

> <Gold.Version>
5.2

> <Gold.Id.Protein>
6HGV|6HGV_protein|mol2

> <Gold.PLP.Fitness>
96.8433

> <Gold.PLP.PLP>
-96.6919

> <Gold.PLP.part.hbond>
-7.5557

> <Gold.PLP.part.metal>
0.0000

> <Gold.PLP.part.buried>
14.0409

> <Gold.PLP.part.nonpolar>
-102.7996

> <Gold.PLP.part.repulsive>
0.0512

> <Gold.PLP.ligand.clash>
1.6829

> <Gold.PLP.ligand.torsion>
1.4002

> <Gold.PLP.Chemscore.Hbond>
0.7393

> <Gold.PLP.Chemscore.CHOScore>
0.0000

> <Gold.PLP.Chemscore.Metal>
0.0000

> <Gold.Chemscore.Hbonds>
donor molecule, donor type, donor heavy atom, donor atom, acceptor molecule, acceptor atom, score
      L1  H    30    62       P1  1931  0.47
      P1  H  1247  3847       L1    35  0.27

> <Gold.PLP.Chemscore.Internal.Correction>
0.7652

> <Gold.Protein.RotatedTorsions>
[ 3525  925  924  922 ] final   31.34 input   59.99 | X-H torsion
[ 3781 1176 1175 1172 ] final   63.51 input   60.00 | X-H torsion
[ 4531 1957 1955 1953 ] final   22.07 input   60.00 | X-H torsion
[ 3847 1247 1246 1244 ] final  -62.00 input   60.00 | X-H torsion
[ 4507 1931 1930 1928 ] final -139.26 input   60.00 | X-H torsion
[ 3677 1070 1069 1066 ] final  156.97 input   60.00 | X-H torsion

> <Gold.Protein.ActiveResidues>
 GLY266  PHE267  PRO268  GLU269  MET310  HIS334  ASP335  TRP336  GLY337  GLY338 
 MET339  LEU340  TRP342  TYR343  LEU358  ASN359  THR360  PRO361  ILE363  ALA365 
 MET369  SER370  PRO371  LEU372  GLU373  SER374  ILE375  LYS376  ALA377  ASN378 
 VAL380  PHE381  ASP382  TYR383  GLN384  PHE387  GLN388  LEU397  SER407  LEU408 
 PHE409  ARG410  LEU417  MET419  LEU428  PHE429  PHE459  TRP465  TYR466  ASN468 
 MET469  GLU470  ASN472  TRP473  ALA476  ASP496  PHE497  VAL498  LEU499  MET503 
 HIS524  TRP525 

> <Gold.Protein.RotatedAtoms>
   -3.2269  -29.6782  -30.7939 H   0  0  0  0  0  0  0  0  0  0  0  0  # atno 3525 bound_to 925 
  -11.1873  -22.4743  -30.9572 H   0  0  0  0  0  0  0  0  0  0  0  0  # atno 3677 bound_to 1070
  -10.5693  -37.4343  -32.7326 H   0  0  0  0  0  0  0  0  0  0  0  0  # atno 3781 bound_to 1176
  -16.0586  -27.8402  -37.2538 H   0  0  0  0  0  0  0  0  0  0  0  0  # atno 3847 bound_to 1247
  -13.3104  -24.2332  -40.4711 H   0  0  0  0  0  0  0  0  0  0  0  0  # atno 4507 bound_to 1931
   -3.0409  -32.8070  -36.6594 H   0  0  0  0  0  0  0  0  0  0  0  0  # atno 4531 bound_to 1957
   -3.4543  -29.7289  -29.1833 LP  0  0  0  0  0  0  0  0  0  0  0  0  # atno 5201 bound_to 925 
   -2.0596  -30.2776  -29.8316 LP  0  0  0  0  0  0  0  0  0  0  0  0  # atno 5202 bound_to 925 
  -10.2818  -36.7053  -34.1587 LP  0  0  0  0  0  0  0  0  0  0  0  0  # atno 5205 bound_to 1176
   -9.2558  -36.4896  -32.9068 LP  0  0  0  0  0  0  0  0  0  0  0  0  # atno 5206 bound_to 1176
   -1.4644  -32.5289  -36.9518 LP  0  0  0  0  0  0  0  0  0  0  0  0  # atno 5213 bound_to 1957
   -2.0251  -34.0605  -36.8717 LP  0  0  0  0  0  0  0  0  0  0  0  0  # atno 5214 bound_to 1957
  -14.6399  -27.4590  -37.9538 LP  0  0  0  0  0  0  0  0  0  0  0  0  # atno 5227 bound_to 1247
  -14.8598  -28.9396  -37.3010 LP  0  0  0  0  0  0  0  0  0  0  0  0  # atno 5228 bound_to 1247
  -12.4335  -24.1220  -39.1048 LP  0  0  0  0  0  0  0  0  0  0  0  0  # atno 5245 bound_to 1931
  -13.4492  -25.3814  -39.3264 LP  0  0  0  0  0  0  0  0  0  0  0  0  # atno 5246 bound_to 1931
  -12.6832  -22.7258  -30.3680 LP  0  0  0  0  0  0  0  0  0  0  0  0  # atno 5265 bound_to 1070
  -11.9888  -23.8372  -31.3423 LP  0  0  0  0  0  0  0  0  0  0  0  0  # atno 5266 bound_to 1070

$$$$
MSC-065|Lisa_paper2_min|sdf|12|dock10
  -GOLD-  10202014473D 1   1.00000     0.00000

 63 66  0  0  0  0  0  0  0  0  1 V2000
   -3.1255  -29.9718  -33.4058 C   0  0  0  0  0  0  0  0  0  0  0  0
   -3.3900  -31.3306  -33.5637 C   0  0  0  0  0  0  0  0  0  0  0  0
   -4.1375  -29.0228  -33.5776 C   0  0  0  0  0  0  0  0  0  0  0  0
   -4.6705  -31.7858  -33.8971 C   0  0  0  0  0  0  0  0  0  0  0  0
  -11.4766  -26.9796  -36.9588 C   0  0  0  0  0  0  0  0  0  0  0  0
  -16.7174  -23.3558  -39.5275 C   0  0  0  0  0  0  0  0  0  0  0  0
  -10.5184  -27.6819  -36.2278 C   0  0  0  0  0  0  0  0  0  0  0  0
  -18.0685  -23.1810  -39.8266 C   0  0  0  0  0  0  0  0  0  0  0  0
  -11.5221  -25.2679  -35.2544 C   0  0  0  0  0  0  0  0  0  0  0  0
  -17.3154  -24.6965  -37.6088 C   0  0  0  0  0  0  0  0  0  0  0  0
  -10.5640  -25.9702  -34.5234 C   0  0  0  0  0  0  0  0  0  0  0  0
   -5.4302  -29.4629  -33.9131 C   0  0  0  0  0  0  0  0  0  0  0  0
   -5.6799  -30.8271  -34.0676 C   0  0  0  0  0  0  0  0  0  0  0  0
  -11.9784  -25.7725  -36.4721 C   0  0  0  0  0  0  0  0  0  0  0  0
  -16.3408  -24.1136  -38.4187 C   0  0  0  0  0  0  0  0  0  0  0  0
  -10.0623  -27.1773  -35.0101 C   0  0  0  0  0  0  0  0  0  0  0  0
  -19.0432  -23.7640  -39.0166 C   0  0  0  0  0  0  0  0  0  0  0  0
  -18.6666  -24.5218  -37.9077 C   0  0  0  0  0  0  0  0  0  0  0  0
   -7.4940  -29.6100  -34.4098 C   0  0  0  0  0  0  0  0  0  0  0  0
   -7.7684  -32.0701  -34.6464 C   0  0  0  0  0  0  0  0  0  0  0  0
  -14.3333  -25.1718  -37.2578 C   0  0  0  0  0  0  0  0  0  0  0  0
  -10.0869  -25.4153  -33.2219 C   0  0  0  0  0  0  0  0  0  0  0  0
   -8.4837  -34.7550  -35.5067 C   0  0  0  0  0  0  0  0  0  0  0  0
   -6.5970  -35.4587  -34.0051 C   0  0  0  0  0  0  0  0  0  0  0  0
   -8.5508  -34.2005  -33.0526 C   0  0  0  0  0  0  0  0  0  0  0  0
   -8.8922  -29.2263  -34.7126 C   0  0  0  0  0  0  0  0  0  0  0  0
   -7.6549  -34.3910  -34.2756 C   0  0  0  0  0  0  0  0  0  0  0  0
   -6.5645  -28.7278  -34.1292 N   0  0  0  0  0  0  0  0  0  0  0  0
   -7.0290  -30.9098  -34.3910 N   0  0  0  0  0  0  0  0  0  0  0  0
  -12.9367  -25.0702  -37.2036 N   0  0  0  0  0  0  0  0  0  0  0  0
  -14.9676  -24.2914  -38.1156 N   0  0  0  0  0  0  0  0  0  0  0  0
   -8.9556  -32.0194  -34.9224 O   0  0  0  0  0  0  0  0  0  0  0  0
   -9.1218  -27.8792  -34.3059 O   0  0  0  0  0  0  0  0  0  0  0  0
   -6.9703  -33.1619  -34.5349 O   0  0  0  0  0  0  0  0  0  0  0  0
  -15.0735  -26.2387  -36.1836 S   0  0  0  0  0  0  0  0  0  0  0  0
  -20.7001  -23.5083  -39.4378 Cl  0  0  0  0  0  0  0  0  0  0  0  0
  -19.8272  -25.2671  -36.8654 Cl  0  0  0  0  0  0  0  0  0  0  0  0
   -2.1222  -29.6446  -33.1467 H   0  0  0  0  0  0  0  0  0  0  0  0
   -2.5877  -32.0513  -33.4260 H   0  0  0  0  0  0  0  0  0  0  0  0
   -3.9239  -27.9656  -33.4533 H   0  0  0  0  0  0  0  0  0  0  0  0
   -4.8501  -32.8479  -34.0143 H   0  0  0  0  0  0  0  0  0  0  0  0
  -11.8248  -27.3824  -37.9065 H   0  0  0  0  0  0  0  0  0  0  0  0
  -15.9660  -22.8985  -40.1661 H   0  0  0  0  0  0  0  0  0  0  0  0
  -10.1316  -28.6216  -36.6127 H   0  0  0  0  0  0  0  0  0  0  0  0
  -18.3437  -22.5886  -40.6956 H   0  0  0  0  0  0  0  0  0  0  0  0
  -11.9126  -24.3266  -34.8736 H   0  0  0  0  0  0  0  0  0  0  0  0
  -17.0155  -25.2855  -36.7443 H   0  0  0  0  0  0  0  0  0  0  0  0
  -10.7124  -25.7825  -32.3998 H   0  0  0  0  0  0  0  0  0  0  0  0
   -9.0468  -25.7037  -33.0251 H   0  0  0  0  0  0  0  0  0  0  0  0
  -10.1191  -24.3185  -33.2226 H   0  0  0  0  0  0  0  0  0  0  0  0
   -9.2442  -33.9912  -35.7041 H   0  0  0  0  0  0  0  0  0  0  0  0
   -7.8569  -34.8603  -36.3982 H   0  0  0  0  0  0  0  0  0  0  0  0
   -9.0239  -35.6958  -35.3503 H   0  0  0  0  0  0  0  0  0  0  0  0
   -6.0000  -35.2017  -33.1227 H   0  0  0  0  0  0  0  0  0  0  0  0
   -5.8939  -35.5325  -34.8427 H   0  0  0  0  0  0  0  0  0  0  0  0
   -7.0484  -36.4430  -33.8437 H   0  0  0  0  0  0  0  0  0  0  0  0
   -7.9566  -33.9393  -32.1694 H   0  0  0  0  0  0  0  0  0  0  0  0
   -9.2929  -33.4120  -33.2153 H   0  0  0  0  0  0  0  0  0  0  0  0
   -9.0779  -35.1295  -32.8070 H   0  0  0  0  0  0  0  0  0  0  0  0
   -9.1155  -29.3030  -35.7894 H   0  0  0  0  0  0  0  0  0  0  0  0
   -9.6145  -29.8735  -34.1887 H   0  0  0  0  0  0  0  0  0  0  0  0
  -12.5732  -24.3145  -37.7968 H   0  0  0  0  0  0  0  0  0  0  0  0
  -14.3604  -23.5888  -38.5301 H   0  0  0  0  0  0  0  0  0  0  0  0
  1  2  2  0  0  0  0
  1  3  1  0  0  0  0
  2  4  1  0  0  0  0
  3 12  2  0  0  0  0
  4 13  2  0  0  0  0
  5  7  2  0  0  0  0
  5 14  1  0  0  0  0
  6  8  1  0  0  0  0
  6 15  2  0  0  0  0
  7 16  1  0  0  0  0
  8 17  2  0  0  0  0
  9 11  1  0  0  0  0
  9 14  2  0  0  0  0
 10 15  1  0  0  0  0
 10 18  2  0  0  0  0
 11 16  2  0  0  0  0
 11 22  1  0  0  0  0
 12 13  1  0  0  0  0
 12 28  1  0  0  0  0
 13 29  1  0  0  0  0
 14 30  1  0  0  0  0
 15 31  1  0  0  0  0
 16 33  1  0  0  0  0
 17 18  1  0  0  0  0
 17 36  1  0  0  0  0
 18 37  1  0  0  0  0
 19 26  1  0  0  0  0
 19 28  2  0  0  0  0
 19 29  1  0  0  0  0
 20 29  1  0  0  0  0
 20 32  2  0  0  0  0
 20 34  1  0  0  0  0
 21 30  1  0  0  0  0
 21 31  1  0  0  0  0
 21 35  2  0  0  0  0
 23 27  1  0  0  0  0
 24 27  1  0  0  0  0
 25 27  1  0  0  0  0
 26 33  1  0  0  0  0
 27 34  1  0  0  0  0
  1 38  1  0  0  0  0
  2 39  1  0  0  0  0
  3 40  1  0  0  0  0
  4 41  1  0  0  0  0
  5 42  1  0  0  0  0
  6 43  1  0  0  0  0
  7 44  1  0  0  0  0
  8 45  1  0  0  0  0
  9 46  1  0  0  0  0
 10 47  1  0  0  0  0
 22 48  1  0  0  0  0
 22 49  1  0  0  0  0
 22 50  1  0  0  0  0
 23 51  1  0  0  0  0
 23 52  1  0  0  0  0
 23 53  1  0  0  0  0
 24 54  1  0  0  0  0
 24 55  1  0  0  0  0
 24 56  1  0  0  0  0
 25 57  1  0  0  0  0
 25 58  1  0  0  0  0
 25 59  1  0  0  0  0
 26 60  1  0  0  0  0
 26 61  1  0  0  0  0
 30 62  1  0  0  0  0
 31 63  1  0  0  0  0
M  END
> <Clean Energy>
84.5744

> <SourceTag>
Livi_174a

> <Activity_FLAP>
100

> <Activity_sEH>
0.7

> <Gold.Version>
5.2

> <Gold.Id.Protein>
6HGV|6HGV_protein|mol2

> <Gold.PLP.Fitness>
96.2215

> <Gold.PLP.PLP>
-96.1495

> <Gold.PLP.part.hbond>
-7.4932

> <Gold.PLP.part.metal>
0.0000

> <Gold.PLP.part.buried>
9.9238

> <Gold.PLP.part.nonpolar>
-99.0513

> <Gold.PLP.part.repulsive>
0.0613

> <Gold.PLP.ligand.clash>
1.5643

> <Gold.PLP.ligand.torsion>
1.6825

> <Gold.PLP.Chemscore.Hbond>
0.7645

> <Gold.PLP.Chemscore.CHOScore>
0.0000

> <Gold.PLP.Chemscore.Metal>
0.0000

> <Gold.Chemscore.Hbonds>
donor molecule, donor type, donor heavy atom, donor atom, acceptor molecule, acceptor atom, score
      L1  H    30    62       P1  1931  0.47
      P1  H  1247  3847       L1    35  0.29

> <Gold.PLP.Chemscore.Internal.Correction>
0.7652

> <Gold.Protein.RotatedTorsions>
[ 3525  925  924  922 ] final   37.98 input   59.99 | X-H torsion
[ 3781 1176 1175 1172 ] final   56.71 input   60.00 | X-H torsion
[ 4531 1957 1955 1953 ] final  -37.82 input   60.00 | X-H torsion
[ 3847 1247 1246 1244 ] final  -68.29 input   60.00 | X-H torsion
[ 4507 1931 1930 1928 ] final -131.28 input   60.00 | X-H torsion
[ 3677 1070 1069 1066 ] final  -85.53 input   60.00 | X-H torsion

> <Gold.Protein.ActiveResidues>
 GLY266  PHE267  PRO268  GLU269  MET310  HIS334  ASP335  TRP336  GLY337  GLY338 
 MET339  LEU340  TRP342  TYR343  LEU358  ASN359  THR360  PRO361  ILE363  ALA365 
 MET369  SER370  PRO371  LEU372  GLU373  SER374  ILE375  LYS376  ALA377  ASN378 
 VAL380  PHE381  ASP382  TYR383  GLN384  PHE387  GLN388  LEU397  SER407  LEU408 
 PHE409  ARG410  LEU417  MET419  LEU428  PHE429  PHE459  TRP465  TYR466  ASN468 
 MET469  GLU470  ASN472  TRP473  ALA476  ASP496  PHE497  VAL498  LEU499  MET503 
 HIS524  TRP525 

> <Gold.Protein.RotatedAtoms>
   -3.1324  -29.7160  -30.8311 H   0  0  0  0  0  0  0  0  0  0  0  0  # atno 3525 bound_to 925 
  -11.9501  -23.8253  -31.3516 H   0  0  0  0  0  0  0  0  0  0  0  0  # atno 3677 bound_to 1070
  -10.6352  -37.4450  -32.8213 H   0  0  0  0  0  0  0  0  0  0  0  0  # atno 3781 bound_to 1176
  -16.0395  -27.7486  -37.2963 H   0  0  0  0  0  0  0  0  0  0  0  0  # atno 3847 bound_to 1247
  -13.3888  -24.3368  -40.4807 H   0  0  0  0  0  0  0  0  0  0  0  0  # atno 4507 bound_to 1931
   -2.3332  -32.2089  -36.7836 H   0  0  0  0  0  0  0  0  0  0  0  0  # atno 4531 bound_to 1957
   -3.5288  -29.6900  -29.2530 LP  0  0  0  0  0  0  0  0  0  0  0  0  # atno 5201 bound_to 925 
   -2.0803  -30.2784  -29.7244 LP  0  0  0  0  0  0  0  0  0  0  0  0  # atno 5202 bound_to 925 
  -10.1900  -36.6418  -34.1647 LP  0  0  0  0  0  0  0  0  0  0  0  0  # atno 5205 bound_to 1176
   -9.2813  -36.5423  -32.8115 LP  0  0  0  0  0  0  0  0  0  0  0  0  # atno 5206 bound_to 1176
   -1.3103  -33.4564  -36.9972 LP  0  0  0  0  0  0  0  0  0  0  0  0  # atno 5213 bound_to 1957
   -2.8918  -33.7352  -36.7013 LP  0  0  0  0  0  0  0  0  0  0  0  0  # atno 5214 bound_to 1957
  -14.5669  -27.5325  -37.9543 LP  0  0  0  0  0  0  0  0  0  0  0  0  # atno 5227 bound_to 1247
  -14.9519  -28.9584  -37.2577 LP  0  0  0  0  0  0  0  0  0  0  0  0  # atno 5228 bound_to 1247
  -12.4288  -24.0341  -39.2022 LP  0  0  0  0  0  0  0  0  0  0  0  0  # atno 5245 bound_to 1931
  -13.3749  -25.3650  -39.2194 LP  0  0  0  0  0  0  0  0  0  0  0  0  # atno 5246 bound_to 1931
  -11.2011  -22.4420  -30.9350 LP  0  0  0  0  0  0  0  0  0  0  0  0  # atno 5265 bound_to 1070
  -12.7028  -22.7605  -30.3781 LP  0  0  0  0  0  0  0  0  0  0  0  0  # atno 5266 bound_to 1070

$$$$
MSC-065|Lisa_paper2_min|sdf|12|dock2
  -GOLD-  10202014463D 1   1.00000     0.00000

 63 66  0  0  0  0  0  0  0  0  1 V2000
   -3.8991  -31.6763  -34.7867 C   0  0  0  0  0  0  0  0  0  0  0  0
   -4.2941  -32.4299  -33.6833 C   0  0  0  0  0  0  0  0  0  0  0  0
   -4.7800  -30.7708  -35.3852 C   0  0  0  0  0  0  0  0  0  0  0  0
   -5.5784  -32.3042  -33.1421 C   0  0  0  0  0  0  0  0  0  0  0  0
  -11.7412  -27.0416  -37.0110 C   0  0  0  0  0  0  0  0  0  0  0  0
  -16.7510  -23.2297  -39.6224 C   0  0  0  0  0  0  0  0  0  0  0  0
  -10.7887  -27.7857  -36.3148 C   0  0  0  0  0  0  0  0  0  0  0  0
  -18.0977  -23.0511  -39.9387 C   0  0  0  0  0  0  0  0  0  0  0  0
  -11.4005  -25.1896  -35.4974 C   0  0  0  0  0  0  0  0  0  0  0  0
  -17.3767  -24.5882  -37.7251 C   0  0  0  0  0  0  0  0  0  0  0  0
  -10.4480  -25.9337  -34.8012 C   0  0  0  0  0  0  0  0  0  0  0  0
   -6.0747  -30.6323  -34.8542 C   0  0  0  0  0  0  0  0  0  0  0  0
   -6.4558  -31.3936  -33.7486 C   0  0  0  0  0  0  0  0  0  0  0  0
  -12.0471  -25.7435  -36.6023 C   0  0  0  0  0  0  0  0  0  0  0  0
  -16.3905  -23.9983  -38.5156 C   0  0  0  0  0  0  0  0  0  0  0  0
  -10.1422  -27.2318  -35.2099 C   0  0  0  0  0  0  0  0  0  0  0  0
  -19.0840  -23.6411  -39.1481 C   0  0  0  0  0  0  0  0  0  0  0  0
  -18.7234  -24.4096  -38.0413 C   0  0  0  0  0  0  0  0  0  0  0  0
   -8.0847  -30.0687  -34.4420 C   0  0  0  0  0  0  0  0  0  0  0  0
   -8.6017  -31.4971  -32.4733 C   0  0  0  0  0  0  0  0  0  0  0  0
  -14.3929  -25.1161  -37.3940 C   0  0  0  0  0  0  0  0  0  0  0  0
   -9.7657  -25.3251  -33.6208 C   0  0  0  0  0  0  0  0  0  0  0  0
   -7.4943  -33.5532  -29.6597 C   0  0  0  0  0  0  0  0  0  0  0  0
   -8.3563  -31.1948  -29.7279 C   0  0  0  0  0  0  0  0  0  0  0  0
   -9.8462  -33.0917  -30.4280 C   0  0  0  0  0  0  0  0  0  0  0  0
   -9.3970  -29.3893  -34.5420 C   0  0  0  0  0  0  0  0  0  0  0  0
   -8.4103  -32.5709  -30.3882 C   0  0  0  0  0  0  0  0  0  0  0  0
   -7.0960  -29.8201  -35.2676 N   0  0  0  0  0  0  0  0  0  0  0  0
   -7.7682  -31.0167  -33.4896 N   0  0  0  0  0  0  0  0  0  0  0  0
  -12.9997  -24.9994  -37.2990 N   0  0  0  0  0  0  0  0  0  0  0  0
  -15.0218  -24.1800  -38.1949 N   0  0  0  0  0  0  0  0  0  0  0  0
   -9.7440  -31.0894  -32.3422 O   0  0  0  0  0  0  0  0  0  0  0  0
   -9.2103  -27.9759  -34.5384 O   0  0  0  0  0  0  0  0  0  0  0  0
   -7.9420  -32.4227  -31.7319 O   0  0  0  0  0  0  0  0  0  0  0  0
  -15.1401  -26.2746  -36.4246 S   0  0  0  0  0  0  0  0  0  0  0  0
  -20.7346  -23.3801  -39.5901 Cl  0  0  0  0  0  0  0  0  0  0  0  0
  -19.8991  -25.1640  -37.0226 Cl  0  0  0  0  0  0  0  0  0  0  0  0
   -2.8959  -31.7929  -35.1876 H   0  0  0  0  0  0  0  0  0  0  0  0
   -3.5929  -33.1287  -33.2339 H   0  0  0  0  0  0  0  0  0  0  0  0
   -4.4654  -30.1873  -36.2450 H   0  0  0  0  0  0  0  0  0  0  0  0
   -5.8610  -32.9020  -32.2836 H   0  0  0  0  0  0  0  0  0  0  0  0
  -12.2388  -27.4836  -37.8706 H   0  0  0  0  0  0  0  0  0  0  0  0
  -15.9904  -22.7669  -40.2459 H   0  0  0  0  0  0  0  0  0  0  0  0
  -10.5550  -28.7965  -36.6385 H   0  0  0  0  0  0  0  0  0  0  0  0
  -18.3603  -22.4503  -40.8058 H   0  0  0  0  0  0  0  0  0  0  0  0
  -11.6380  -24.1773  -35.1775 H   0  0  0  0  0  0  0  0  0  0  0  0
  -17.0893  -25.1856  -36.8621 H   0  0  0  0  0  0  0  0  0  0  0  0
  -10.3290  -25.5376  -32.7046 H   0  0  0  0  0  0  0  0  0  0  0  0
   -8.7481  -25.7184  -33.5043 H   0  0  0  0  0  0  0  0  0  0  0  0
   -9.6763  -24.2371  -33.7316 H   0  0  0  0  0  0  0  0  0  0  0  0
   -7.5303  -34.5420  -30.1306 H   0  0  0  0  0  0  0  0  0  0  0  0
   -6.4553  -33.2080  -29.6546 H   0  0  0  0  0  0  0  0  0  0  0  0
   -7.8177  -33.6932  -28.6218 H   0  0  0  0  0  0  0  0  0  0  0  0
   -9.0121  -30.4868  -30.2474 H   0  0  0  0  0  0  0  0  0  0  0  0
   -7.3451  -30.7756  -29.7816 H   0  0  0  0  0  0  0  0  0  0  0  0
   -8.6578  -31.2393  -28.6764 H   0  0  0  0  0  0  0  0  0  0  0  0
  -10.5035  -32.3873  -30.9506 H   0  0  0  0  0  0  0  0  0  0  0  0
   -9.9095  -34.0619  -30.9315 H   0  0  0  0  0  0  0  0  0  0  0  0
  -10.2503  -33.1982  -29.4148 H   0  0  0  0  0  0  0  0  0  0  0  0
   -9.9322  -29.6629  -35.4661 H   0  0  0  0  0  0  0  0  0  0  0  0
  -10.0572  -29.6530  -33.6995 H   0  0  0  0  0  0  0  0  0  0  0  0
  -12.6351  -24.1943  -37.8224 H   0  0  0  0  0  0  0  0  0  0  0  0
  -14.4167  -23.4384  -38.5386 H   0  0  0  0  0  0  0  0  0  0  0  0
  1  2  2  0  0  0  0
  1  3  1  0  0  0  0
  2  4  1  0  0  0  0
  3 12  2  0  0  0  0
  4 13  2  0  0  0  0
  5  7  2  0  0  0  0
  5 14  1  0  0  0  0
  6  8  1  0  0  0  0
  6 15  2  0  0  0  0
  7 16  1  0  0  0  0
  8 17  2  0  0  0  0
  9 11  1  0  0  0  0
  9 14  2  0  0  0  0
 10 15  1  0  0  0  0
 10 18  2  0  0  0  0
 11 16  2  0  0  0  0
 11 22  1  0  0  0  0
 12 13  1  0  0  0  0
 12 28  1  0  0  0  0
 13 29  1  0  0  0  0
 14 30  1  0  0  0  0
 15 31  1  0  0  0  0
 16 33  1  0  0  0  0
 17 18  1  0  0  0  0
 17 36  1  0  0  0  0
 18 37  1  0  0  0  0
 19 26  1  0  0  0  0
 19 28  2  0  0  0  0
 19 29  1  0  0  0  0
 20 29  1  0  0  0  0
 20 32  2  0  0  0  0
 20 34  1  0  0  0  0
 21 30  1  0  0  0  0
 21 31  1  0  0  0  0
 21 35  2  0  0  0  0
 23 27  1  0  0  0  0
 24 27  1  0  0  0  0
 25 27  1  0  0  0  0
 26 33  1  0  0  0  0
 27 34  1  0  0  0  0
  1 38  1  0  0  0  0
  2 39  1  0  0  0  0
  3 40  1  0  0  0  0
  4 41  1  0  0  0  0
  5 42  1  0  0  0  0
  6 43  1  0  0  0  0
  7 44  1  0  0  0  0
  8 45  1  0  0  0  0
  9 46  1  0  0  0  0
 10 47  1  0  0  0  0
 22 48  1  0  0  0  0
 22 49  1  0  0  0  0
 22 50  1  0  0  0  0
 23 51  1  0  0  0  0
 23 52  1  0  0  0  0
 23 53  1  0  0  0  0
 24 54  1  0  0  0  0
 24 55  1  0  0  0  0
 24 56  1  0  0  0  0
 25 57  1  0  0  0  0
 25 58  1  0  0  0  0
 25 59  1  0  0  0  0
 26 60  1  0  0  0  0
 26 61  1  0  0  0  0
 30 62  1  0  0  0  0
 31 63  1  0  0  0  0
M  END
> <Clean Energy>
84.5744

> <SourceTag>
Livi_174a

> <Activity_FLAP>
100

> <Activity_sEH>
0.7

> <Gold.Version>
5.2

> <Gold.Id.Protein>
6HGV|6HGV_protein|mol2

> <Gold.PLP.Fitness>
95.9762

> <Gold.PLP.PLP>
-94.0281

> <Gold.PLP.part.hbond>
-6.8135

> <Gold.PLP.part.metal>
0.0000

> <Gold.PLP.part.buried>
13.7862

> <Gold.PLP.part.nonpolar>
-100.4417

> <Gold.PLP.part.repulsive>
0.0345

> <Gold.PLP.ligand.clash>
0.0000

> <Gold.PLP.ligand.torsion>
1.7035

> <Gold.PLP.Chemscore.Hbond>
0.8511

> <Gold.PLP.Chemscore.CHOScore>
0.0000

> <Gold.PLP.Chemscore.Metal>
0.0000

> <Gold.Chemscore.Hbonds>
donor molecule, donor type, donor heavy atom, donor atom, acceptor molecule, acceptor atom, score
      L1  H    30    62       P1  1931  0.41
      P1  H  1247  3847       L1    35  0.44

> <Gold.PLP.Chemscore.Internal.Correction>
0.8090

> <Gold.Protein.RotatedTorsions>
[ 3525  925  924  922 ] final  152.17 input   59.99 | X-H torsion
[ 3781 1176 1175 1172 ] final  -44.55 input   60.00 | X-H torsion
[ 4531 1957 1955 1953 ] final -114.46 input   60.00 | X-H torsion
[ 3847 1247 1246 1244 ] final  -80.92 input   60.00 | X-H torsion
[ 4507 1931 1930 1928 ] final -143.10 input   60.00 | X-H torsion
[ 3677 1070 1069 1066 ] final  169.24 input   60.00 | X-H torsion

> <Gold.Protein.ActiveResidues>
 GLY266  PHE267  PRO268  GLU269  MET310  HIS334  ASP335  TRP336  GLY337  GLY338 
 MET339  LEU340  TRP342  TYR343  LEU358  ASN359  THR360  PRO361  ILE363  ALA365 
 MET369  SER370  PRO371  LEU372  GLU373  SER374  ILE375  LYS376  ALA377  ASN378 
 VAL380  PHE381  ASP382  TYR383  GLN384  PHE387  GLN388  LEU397  SER407  LEU408 
 PHE409  ARG410  LEU417  MET419  LEU428  PHE429  PHE459  TRP465  TYR466  ASN468 
 MET469  GLU470  ASN472  TRP473  ALA476  ASP496  PHE497  VAL498  LEU499  MET503 
 HIS524  TRP525 

> <Gold.Protein.RotatedAtoms>
   -2.0666  -30.2732  -29.8189 H   0  0  0  0  0  0  0  0  0  0  0  0  # atno 3525 bound_to 925 
  -11.1202  -22.6219  -31.0743 H   0  0  0  0  0  0  0  0  0  0  0  0  # atno 3677 bound_to 1070
  -10.4299  -36.8243  -34.1128 H   0  0  0  0  0  0  0  0  0  0  0  0  # atno 3781 bound_to 1176
  -15.9707  -27.5778  -37.3887 H   0  0  0  0  0  0  0  0  0  0  0  0  # atno 3847 bound_to 1247
  -13.2709  -24.1857  -40.4608 H   0  0  0  0  0  0  0  0  0  0  0  0  # atno 4507 bound_to 1931
   -1.3325  -32.7626  -36.9834 H   0  0  0  0  0  0  0  0  0  0  0  0  # atno 4531 bound_to 1957
   -3.2185  -29.6833  -30.8054 LP  0  0  0  0  0  0  0  0  0  0  0  0  # atno 5201 bound_to 925 
   -3.4640  -29.7239  -29.1915 LP  0  0  0  0  0  0  0  0  0  0  0  0  # atno 5202 bound_to 925 
   -9.2378  -36.4107  -33.0853 LP  0  0  0  0  0  0  0  0  0  0  0  0  # atno 5205 bound_to 1176
  -10.4403  -37.3984  -32.5902 LP  0  0  0  0  0  0  0  0  0  0  0  0  # atno 5206 bound_to 1176
   -2.2913  -34.0674  -36.8212 LP  0  0  0  0  0  0  0  0  0  0  0  0  # atno 5213 bound_to 1957
   -2.9185  -32.5666  -36.6761 LP  0  0  0  0  0  0  0  0  0  0  0  0  # atno 5214 bound_to 1957
  -14.4440  -27.6988  -37.9389 LP  0  0  0  0  0  0  0  0  0  0  0  0  # atno 5227 bound_to 1247
  -15.1442  -28.9640  -37.1801 LP  0  0  0  0  0  0  0  0  0  0  0  0  # atno 5228 bound_to 1247
  -12.4401  -24.1675  -39.0616 LP  0  0  0  0  0  0  0  0  0  0  0  0  # atno 5245 bound_to 1931
  -13.4823  -25.3837  -39.3800 LP  0  0  0  0  0  0  0  0  0  0  0  0  # atno 5246 bound_to 1931
  -12.5677  -22.5645  -30.3330 LP  0  0  0  0  0  0  0  0  0  0  0  0  # atno 5265 bound_to 1070
  -12.1720  -23.8497  -31.2594 LP  0  0  0  0  0  0  0  0  0  0  0  0  # atno 5266 bound_to 1070

$$$$
MSC-065|Lisa_paper2_min|sdf|12|dock5
  -GOLD-  10202014473D 1   1.00000     0.00000

 63 66  0  0  0  0  0  0  0  0  1 V2000
   -3.1397  -30.1932  -33.3386 C   0  0  0  0  0  0  0  0  0  0  0  0
   -3.4483  -31.5299  -33.5820 C   0  0  0  0  0  0  0  0  0  0  0  0
   -4.1163  -29.2008  -33.4633 C   0  0  0  0  0  0  0  0  0  0  0  0
   -4.7391  -31.9190  -33.9568 C   0  0  0  0  0  0  0  0  0  0  0  0
  -11.5340  -27.0838  -37.0087 C   0  0  0  0  0  0  0  0  0  0  0  0
  -17.1398  -23.7057  -39.2020 C   0  0  0  0  0  0  0  0  0  0  0  0
  -10.4920  -27.7083  -36.3232 C   0  0  0  0  0  0  0  0  0  0  0  0
  -18.5172  -23.5330  -39.3375 C   0  0  0  0  0  0  0  0  0  0  0  0
  -11.5358  -25.2994  -35.3799 C   0  0  0  0  0  0  0  0  0  0  0  0
  -17.4905  -24.8642  -37.1112 C   0  0  0  0  0  0  0  0  0  0  0  0
  -10.4938  -25.9239  -34.6944 C   0  0  0  0  0  0  0  0  0  0  0  0
   -5.4187  -29.5744  -33.8393 C   0  0  0  0  0  0  0  0  0  0  0  0
   -5.7128  -30.9172  -34.0796 C   0  0  0  0  0  0  0  0  0  0  0  0
  -12.0559  -25.8793  -36.5370 C   0  0  0  0  0  0  0  0  0  0  0  0
  -16.6264  -24.3714  -38.0889 C   0  0  0  0  0  0  0  0  0  0  0  0
   -9.9720  -27.1284  -35.1661 C   0  0  0  0  0  0  0  0  0  0  0  0
  -19.3814  -24.0259  -38.3597 C   0  0  0  0  0  0  0  0  0  0  0  0
  -18.8680  -24.6915  -37.2465 C   0  0  0  0  0  0  0  0  0  0  0  0
   -7.4797  -29.6190  -34.3669 C   0  0  0  0  0  0  0  0  0  0  0  0
   -7.8348  -32.0491  -34.7563 C   0  0  0  0  0  0  0  0  0  0  0  0
  -14.4898  -25.3211  -37.0737 C   0  0  0  0  0  0  0  0  0  0  0  0
   -9.9492  -25.2890  -33.4576 C   0  0  0  0  0  0  0  0  0  0  0  0
   -6.7685  -35.4933  -34.1606 C   0  0  0  0  0  0  0  0  0  0  0  0
   -8.5391  -34.0939  -33.0578 C   0  0  0  0  0  0  0  0  0  0  0  0
   -8.7568  -34.7014  -35.4850 C   0  0  0  0  0  0  0  0  0  0  0  0
   -8.8598  -29.1690  -34.6611 C   0  0  0  0  0  0  0  0  0  0  0  0
   -7.7828  -34.3674  -34.3561 C   0  0  0  0  0  0  0  0  0  0  0  0
   -6.5243  -28.7884  -34.0227 N   0  0  0  0  0  0  0  0  0  0  0  0
   -7.0596  -30.9329  -34.4223 N   0  0  0  0  0  0  0  0  0  0  0  0
  -13.0980  -25.2548  -37.2230 N   0  0  0  0  0  0  0  0  0  0  0  0
  -15.2266  -24.5471  -37.9520 N   0  0  0  0  0  0  0  0  0  0  0  0
   -9.0158  -31.9404  -35.0418 O   0  0  0  0  0  0  0  0  0  0  0  0
   -8.9497  -27.7546  -34.5060 O   0  0  0  0  0  0  0  0  0  0  0  0
   -7.0759  -33.1729  -34.7028 O   0  0  0  0  0  0  0  0  0  0  0  0
  -15.0867  -26.2094  -35.7719 S   0  0  0  0  0  0  0  0  0  0  0  0
  -21.0774  -23.7776  -38.5833 Cl  0  0  0  0  0  0  0  0  0  0  0  0
  -19.8873  -25.3226  -36.0008 Cl  0  0  0  0  0  0  0  0  0  0  0  0
   -2.1293  -29.9176  -33.0488 H   0  0  0  0  0  0  0  0  0  0  0  0
   -2.6730  -32.2852  -33.4797 H   0  0  0  0  0  0  0  0  0  0  0  0
   -3.8684  -28.1612  -33.2724 H   0  0  0  0  0  0  0  0  0  0  0  0
   -4.9533  -32.9652  -34.1405 H   0  0  0  0  0  0  0  0  0  0  0  0
  -11.9315  -27.5449  -37.9093 H   0  0  0  0  0  0  0  0  0  0  0  0
  -16.4753  -23.3191  -39.9705 H   0  0  0  0  0  0  0  0  0  0  0  0
  -10.0900  -28.6466  -36.6960 H   0  0  0  0  0  0  0  0  0  0  0  0
  -18.8998  -23.0132  -40.2123 H   0  0  0  0  0  0  0  0  0  0  0  0
  -11.9417  -24.3599  -35.0109 H   0  0  0  0  0  0  0  0  0  0  0  0
  -17.0840  -25.3815  -36.2443 H   0  0  0  0  0  0  0  0  0  0  0  0
  -10.4941  -25.6456  -32.5757 H   0  0  0  0  0  0  0  0  0  0  0  0
   -8.8848  -25.5214  -33.3281 H   0  0  0  0  0  0  0  0  0  0  0  0
  -10.0339  -24.1960  -33.5025 H   0  0  0  0  0  0  0  0  0  0  0  0
   -6.2237  -35.6926  -35.0902 H   0  0  0  0  0  0  0  0  0  0  0  0
   -6.0429  -35.2510  -33.3773 H   0  0  0  0  0  0  0  0  0  0  0  0
   -7.2706  -36.4293  -33.8898 H   0  0  0  0  0  0  0  0  0  0  0  0
   -9.2680  -33.2868  -33.1935 H   0  0  0  0  0  0  0  0  0  0  0  0
   -7.8539  -33.7618  -32.2695 H   0  0  0  0  0  0  0  0  0  0  0  0
   -9.0693  -34.9840  -32.7039 H   0  0  0  0  0  0  0  0  0  0  0  0
   -9.4845  -33.8939  -35.6255 H   0  0  0  0  0  0  0  0  0  0  0  0
   -8.2344  -34.8646  -36.4333 H   0  0  0  0  0  0  0  0  0  0  0  0
   -9.3356  -35.6012  -35.2470 H   0  0  0  0  0  0  0  0  0  0  0  0
   -9.1640  -29.4219  -35.6901 H   0  0  0  0  0  0  0  0  0  0  0  0
   -9.5937  -29.6383  -33.9856 H   0  0  0  0  0  0  0  0  0  0  0  0
  -12.8114  -24.5980  -37.9589 H   0  0  0  0  0  0  0  0  0  0  0  0
  -14.6746  -23.9258  -38.5381 H   0  0  0  0  0  0  0  0  0  0  0  0
  1  2  2  0  0  0  0
  1  3  1  0  0  0  0
  2  4  1  0  0  0  0
  3 12  2  0  0  0  0
  4 13  2  0  0  0  0
  5  7  2  0  0  0  0
  5 14  1  0  0  0  0
  6  8  1  0  0  0  0
  6 15  2  0  0  0  0
  7 16  1  0  0  0  0
  8 17  2  0  0  0  0
  9 11  1  0  0  0  0
  9 14  2  0  0  0  0
 10 15  1  0  0  0  0
 10 18  2  0  0  0  0
 11 16  2  0  0  0  0
 11 22  1  0  0  0  0
 12 13  1  0  0  0  0
 12 28  1  0  0  0  0
 13 29  1  0  0  0  0
 14 30  1  0  0  0  0
 15 31  1  0  0  0  0
 16 33  1  0  0  0  0
 17 18  1  0  0  0  0
 17 36  1  0  0  0  0
 18 37  1  0  0  0  0
 19 26  1  0  0  0  0
 19 28  2  0  0  0  0
 19 29  1  0  0  0  0
 20 29  1  0  0  0  0
 20 32  2  0  0  0  0
 20 34  1  0  0  0  0
 21 30  1  0  0  0  0
 21 31  1  0  0  0  0
 21 35  2  0  0  0  0
 23 27  1  0  0  0  0
 24 27  1  0  0  0  0
 25 27  1  0  0  0  0
 26 33  1  0  0  0  0
 27 34  1  0  0  0  0
  1 38  1  0  0  0  0
  2 39  1  0  0  0  0
  3 40  1  0  0  0  0
  4 41  1  0  0  0  0
  5 42  1  0  0  0  0
  6 43  1  0  0  0  0
  7 44  1  0  0  0  0
  8 45  1  0  0  0  0
  9 46  1  0  0  0  0
 10 47  1  0  0  0  0
 22 48  1  0  0  0  0
 22 49  1  0  0  0  0
 22 50  1  0  0  0  0
 23 51  1  0  0  0  0
 23 52  1  0  0  0  0
 23 53  1  0  0  0  0
 24 54  1  0  0  0  0
 24 55  1  0  0  0  0
 24 56  1  0  0  0  0
 25 57  1  0  0  0  0
 25 58  1  0  0  0  0
 25 59  1  0  0  0  0
 26 60  1  0  0  0  0
 26 61  1  0  0  0  0
 30 62  1  0  0  0  0
 31 63  1  0  0  0  0
M  END
> <Clean Energy>
84.5744

> <SourceTag>
Livi_174a

> <Activity_FLAP>
100

> <Activity_sEH>
0.7

> <Gold.Version>
5.2

> <Gold.Id.Protein>
6HGV|6HGV_protein|mol2

> <Gold.PLP.Fitness>
95.3521

> <Gold.PLP.PLP>
-93.7647

> <Gold.PLP.part.hbond>
-6.6107

> <Gold.PLP.part.metal>
0.0000

> <Gold.PLP.part.buried>
6.9609

> <Gold.PLP.part.nonpolar>
-95.3801

> <Gold.PLP.part.repulsive>
0.0625

> <Gold.PLP.ligand.clash>
0.0162

> <Gold.PLP.ligand.torsion>
1.6624

> <Gold.PLP.Chemscore.Hbond>
0.7356

> <Gold.PLP.Chemscore.CHOScore>
0.0000

> <Gold.PLP.Chemscore.Metal>
0.0000

> <Gold.Chemscore.Hbonds>
donor molecule, donor type, donor heavy atom, donor atom, acceptor molecule, acceptor atom, score
      L1  H    30    62       P1  1931  0.74

> <Gold.PLP.Chemscore.Internal.Correction>
0.8090

> <Gold.Protein.RotatedTorsions>
[ 3525  925  924  922 ] final  -50.19 input   59.99 | X-H torsion
[ 3781 1176 1175 1172 ] final -136.84 input   60.00 | X-H torsion
[ 4531 1957 1955 1953 ] final  -26.34 input   60.00 | X-H torsion
[ 3847 1247 1246 1244 ] final   86.43 input   60.00 | X-H torsion
[ 4507 1931 1930 1928 ] final -158.04 input   60.00 | X-H torsion
[ 3677 1070 1069 1066 ] final   63.80 input   60.00 | X-H torsion

> <Gold.Protein.ActiveResidues>
 GLY266  PHE267  PRO268  GLU269  MET310  HIS334  ASP335  TRP336  GLY337  GLY338 
 MET339  LEU340  TRP342  TYR343  LEU358  ASN359  THR360  PRO361  ILE363  ALA365 
 MET369  SER370  PRO371  LEU372  GLU373  SER374  ILE375  LYS376  ALA377  ASN378 
 VAL380  PHE381  ASP382  TYR383  GLN384  PHE387  GLN388  LEU397  SER407  LEU408 
 PHE409  ARG410  LEU417  MET419  LEU428  PHE429  PHE459  TRP465  TYR466  ASN468 
 MET469  GLU470  ASN472  TRP473  ALA476  ASP496  PHE497  VAL498  LEU499  MET503 
 HIS524  TRP525 

> <Gold.Protein.RotatedAtoms>
   -3.7507  -29.5502  -29.6965 H   0  0  0  0  0  0  0  0  0  0  0  0  # atno 3525 bound_to 925 
  -12.3904  -22.4054  -30.3265 H   0  0  0  0  0  0  0  0  0  0  0  0  # atno 3677 bound_to 1070
   -9.3315  -36.3153  -33.5150 H   0  0  0  0  0  0  0  0  0  0  0  0  # atno 3781 bound_to 1176
  -14.5136  -28.7280  -37.5206 H   0  0  0  0  0  0  0  0  0  0  0  0  # atno 3847 bound_to 1247
  -13.1099  -24.0193  -40.3859 H   0  0  0  0  0  0  0  0  0  0  0  0  # atno 4507 bound_to 1931
   -2.5107  -32.2592  -36.7507 H   0  0  0  0  0  0  0  0  0  0  0  0  # atno 4531 bound_to 1957
   -2.3256  -30.2126  -29.2742 LP  0  0  0  0  0  0  0  0  0  0  0  0  # atno 5201 bound_to 925 
   -2.6607  -29.9228  -30.8459 LP  0  0  0  0  0  0  0  0  0  0  0  0  # atno 5202 bound_to 925 
  -10.0729  -37.2282  -32.3903 LP  0  0  0  0  0  0  0  0  0  0  0  0  # atno 5205 bound_to 1176
  -10.7113  -37.0935  -33.8873 LP  0  0  0  0  0  0  0  0  0  0  0  0  # atno 5206 bound_to 1176
   -1.2635  -33.2737  -37.0029 LP  0  0  0  0  0  0  0  0  0  0  0  0  # atno 5213 bound_to 1957
   -2.7599  -33.8672  -36.7287 LP  0  0  0  0  0  0  0  0  0  0  0  0  # atno 5214 bound_to 1957
  -16.0187  -28.2737  -37.1009 LP  0  0  0  0  0  0  0  0  0  0  0  0  # atno 5227 bound_to 1247
  -15.0368  -27.2309  -37.8852 LP  0  0  0  0  0  0  0  0  0  0  0  0  # atno 5228 bound_to 1247
  -12.4923  -24.3602  -38.9195 LP  0  0  0  0  0  0  0  0  0  0  0  0  # atno 5245 bound_to 1931
  -13.5923  -25.3586  -39.5976 LP  0  0  0  0  0  0  0  0  0  0  0  0  # atno 5246 bound_to 1931
  -12.3758  -23.8150  -31.1394 LP  0  0  0  0  0  0  0  0  0  0  0  0  # atno 5265 bound_to 1070
  -11.0847  -22.8173  -31.2060 LP  0  0  0  0  0  0  0  0  0  0  0  0  # atno 5266 bound_to 1070

$$$$
MSC-065|Lisa_paper2_min|sdf|12|dock1
  -GOLD-  10202014453D 1   1.00000     0.00000

 63 66  0  0  0  0  0  0  0  0  1 V2000
   -4.3159  -30.8595  -35.5965 C   0  0  0  0  0  0  0  0  0  0  0  0
   -4.3440  -31.7592  -34.5330 C   0  0  0  0  0  0  0  0  0  0  0  0
   -5.4267  -30.0618  -35.8863 C   0  0  0  0  0  0  0  0  0  0  0  0
   -5.4790  -31.8917  -33.7254 C   0  0  0  0  0  0  0  0  0  0  0  0
  -12.6075  -27.2653  -36.0234 C   0  0  0  0  0  0  0  0  0  0  0  0
  -16.6859  -23.2111  -39.6628 C   0  0  0  0  0  0  0  0  0  0  0  0
  -11.7638  -28.0061  -35.1957 C   0  0  0  0  0  0  0  0  0  0  0  0
  -17.9911  -22.9661  -40.0894 C   0  0  0  0  0  0  0  0  0  0  0  0
  -11.3406  -25.2688  -35.5276 C   0  0  0  0  0  0  0  0  0  0  0  0
  -17.5302  -24.6088  -37.8822 C   0  0  0  0  0  0  0  0  0  0  0  0
  -10.4969  -26.0096  -34.6999 C   0  0  0  0  0  0  0  0  0  0  0  0
   -6.5759  -30.1824  -35.0849 C   0  0  0  0  0  0  0  0  0  0  0  0
   -6.5889  -31.0877  -34.0231 C   0  0  0  0  0  0  0  0  0  0  0  0
  -12.3958  -25.8966  -36.1893 C   0  0  0  0  0  0  0  0  0  0  0  0
  -16.4554  -24.0325  -38.5592 C   0  0  0  0  0  0  0  0  0  0  0  0
  -10.7086  -27.3783  -34.5339 C   0  0  0  0  0  0  0  0  0  0  0  0
  -19.0659  -23.5424  -39.4124 C   0  0  0  0  0  0  0  0  0  0  0  0
  -18.8354  -24.3637  -38.3087 C   0  0  0  0  0  0  0  0  0  0  0  0
   -8.5014  -29.9917  -34.1994 C   0  0  0  0  0  0  0  0  0  0  0  0
   -8.3584  -31.6489  -32.3509 C   0  0  0  0  0  0  0  0  0  0  0  0
  -14.6289  -25.1793  -37.2004 C   0  0  0  0  0  0  0  0  0  0  0  0
   -9.3722  -25.3214  -33.9993 C   0  0  0  0  0  0  0  0  0  0  0  0
   -7.5015  -31.4394  -29.7315 C   0  0  0  0  0  0  0  0  0  0  0  0
   -8.7893  -33.5421  -30.2110 C   0  0  0  0  0  0  0  0  0  0  0  0
   -6.2824  -33.6145  -30.0743 C   0  0  0  0  0  0  0  0  0  0  0  0
   -9.8848  -29.5295  -33.9424 C   0  0  0  0  0  0  0  0  0  0  0  0
   -7.4951  -32.7750  -30.4737 C   0  0  0  0  0  0  0  0  0  0  0  0
   -7.7676  -29.5152  -35.1769 N   0  0  0  0  0  0  0  0  0  0  0  0
   -7.8496  -30.9535  -33.4536 N   0  0  0  0  0  0  0  0  0  0  0  0
  -13.2398  -25.1559  -37.0173 N   0  0  0  0  0  0  0  0  0  0  0  0
  -15.1288  -24.2817  -38.1265 N   0  0  0  0  0  0  0  0  0  0  0  0
   -9.4880  -31.4457  -31.9373 O   0  0  0  0  0  0  0  0  0  0  0  0
   -9.8904  -28.1203  -33.7258 O   0  0  0  0  0  0  0  0  0  0  0  0
   -7.4261  -32.5146  -31.8788 O   0  0  0  0  0  0  0  0  0  0  0  0
  -15.5262  -26.1810  -36.1848 S   0  0  0  0  0  0  0  0  0  0  0  0
  -20.6592  -23.1981  -39.9876 Cl  0  0  0  0  0  0  0  0  0  0  0  0
  -20.1254  -25.1045  -37.4276 Cl  0  0  0  0  0  0  0  0  0  0  0  0
   -3.4218  -30.7761  -36.2083 H   0  0  0  0  0  0  0  0  0  0  0  0
   -3.4689  -32.3703  -34.3260 H   0  0  0  0  0  0  0  0  0  0  0  0
   -5.3978  -29.3633  -36.7168 H   0  0  0  0  0  0  0  0  0  0  0  0
   -5.4753  -32.5989  -32.9045 H   0  0  0  0  0  0  0  0  0  0  0  0
  -13.4267  -27.7652  -36.5341 H   0  0  0  0  0  0  0  0  0  0  0  0
  -15.8555  -22.7583  -40.1985 H   0  0  0  0  0  0  0  0  0  0  0  0
  -11.9342  -29.0721  -35.0708 H   0  0  0  0  0  0  0  0  0  0  0  0
  -18.1519  -22.3247  -40.9523 H   0  0  0  0  0  0  0  0  0  0  0  0
  -11.1742  -24.2014  -35.6561 H   0  0  0  0  0  0  0  0  0  0  0  0
  -17.3442  -25.2476  -37.0211 H   0  0  0  0  0  0  0  0  0  0  0  0
   -9.7021  -24.9538  -33.0205 H   0  0  0  0  0  0  0  0  0  0  0  0
   -8.5234  -26.0001  -33.8495 H   0  0  0  0  0  0  0  0  0  0  0  0
   -9.0011  -24.4710  -34.5850 H   0  0  0  0  0  0  0  0  0  0  0  0
   -6.5743  -30.8858  -29.9175 H   0  0  0  0  0  0  0  0  0  0  0  0
   -8.3470  -30.8134  -30.0348 H   0  0  0  0  0  0  0  0  0  0  0  0
   -7.5569  -31.5945  -28.6479 H   0  0  0  0  0  0  0  0  0  0  0  0
   -8.7890  -34.5011  -30.7416 H   0  0  0  0  0  0  0  0  0  0  0  0
   -9.6561  -32.9838  -30.5827 H   0  0  0  0  0  0  0  0  0  0  0  0
   -8.9340  -33.7366  -29.1434 H   0  0  0  0  0  0  0  0  0  0  0  0
   -6.2776  -34.5725  -30.6066 H   0  0  0  0  0  0  0  0  0  0  0  0
   -5.3433  -33.0945  -30.2900 H   0  0  0  0  0  0  0  0  0  0  0  0
   -6.3099  -33.8548  -29.0053 H   0  0  0  0  0  0  0  0  0  0  0  0
  -10.5558  -29.7497  -34.7889 H   0  0  0  0  0  0  0  0  0  0  0  0
  -10.3187  -30.0175  -33.0543 H   0  0  0  0  0  0  0  0  0  0  0  0
  -12.7796  -24.4340  -37.5849 H   0  0  0  0  0  0  0  0  0  0  0  0
  -14.4460  -23.6229  -38.4926 H   0  0  0  0  0  0  0  0  0  0  0  0
  1  2  2  0  0  0  0
  1  3  1  0  0  0  0
  2  4  1  0  0  0  0
  3 12  2  0  0  0  0
  4 13  2  0  0  0  0
  5  7  2  0  0  0  0
  5 14  1  0  0  0  0
  6  8  1  0  0  0  0
  6 15  2  0  0  0  0
  7 16  1  0  0  0  0
  8 17  2  0  0  0  0
  9 11  1  0  0  0  0
  9 14  2  0  0  0  0
 10 15  1  0  0  0  0
 10 18  2  0  0  0  0
 11 16  2  0  0  0  0
 11 22  1  0  0  0  0
 12 13  1  0  0  0  0
 12 28  1  0  0  0  0
 13 29  1  0  0  0  0
 14 30  1  0  0  0  0
 15 31  1  0  0  0  0
 16 33  1  0  0  0  0
 17 18  1  0  0  0  0
 17 36  1  0  0  0  0
 18 37  1  0  0  0  0
 19 26  1  0  0  0  0
 19 28  2  0  0  0  0
 19 29  1  0  0  0  0
 20 29  1  0  0  0  0
 20 32  2  0  0  0  0
 20 34  1  0  0  0  0
 21 30  1  0  0  0  0
 21 31  1  0  0  0  0
 21 35  2  0  0  0  0
 23 27  1  0  0  0  0
 24 27  1  0  0  0  0
 25 27  1  0  0  0  0
 26 33  1  0  0  0  0
 27 34  1  0  0  0  0
  1 38  1  0  0  0  0
  2 39  1  0  0  0  0
  3 40  1  0  0  0  0
  4 41  1  0  0  0  0
  5 42  1  0  0  0  0
  6 43  1  0  0  0  0
  7 44  1  0  0  0  0
  8 45  1  0  0  0  0
  9 46  1  0  0  0  0
 10 47  1  0  0  0  0
 22 48  1  0  0  0  0
 22 49  1  0  0  0  0
 22 50  1  0  0  0  0
 23 51  1  0  0  0  0
 23 52  1  0  0  0  0
 23 53  1  0  0  0  0
 24 54  1  0  0  0  0
 24 55  1  0  0  0  0
 24 56  1  0  0  0  0
 25 57  1  0  0  0  0
 25 58  1  0  0  0  0
 25 59  1  0  0  0  0
 26 60  1  0  0  0  0
 26 61  1  0  0  0  0
 30 62  1  0  0  0  0
 31 63  1  0  0  0  0
M  END
> <Clean Energy>
84.5744

> <SourceTag>
Livi_174a

> <Activity_FLAP>
100

> <Activity_sEH>
0.7

> <Gold.Version>
5.2

> <Gold.Id.Protein>
6HGV|6HGV_protein|mol2

> <Gold.PLP.Fitness>
91.5395

> <Gold.PLP.PLP>
-90.3135

> <Gold.PLP.part.hbond>
-6.6343

> <Gold.PLP.part.metal>
0.0000

> <Gold.PLP.part.buried>
8.8644

> <Gold.PLP.part.nonpolar>
-92.3132

> <Gold.PLP.part.repulsive>
0.0259

> <Gold.PLP.ligand.clash>
0.9291

> <Gold.PLP.ligand.torsion>
1.4243

> <Gold.PLP.Chemscore.Hbond>
0.8295

> <Gold.PLP.Chemscore.CHOScore>
0.0000

> <Gold.PLP.Chemscore.Metal>
0.0000

> <Gold.Chemscore.Hbonds>
donor molecule, donor type, donor heavy atom, donor atom, acceptor molecule, acceptor atom, score
      L1  H    30    62       P1  1931  0.49
      P1  H  1247  3847       L1    35  0.34

> <Gold.PLP.Chemscore.Internal.Correction>
0.8090

> <Gold.Protein.RotatedTorsions>
[ 3525  925  924  922 ] final  -17.42 input   59.99 | X-H torsion
[ 3781 1176 1175 1172 ] final  -73.19 input   60.00 | X-H torsion
[ 4531 1957 1955 1953 ] final   78.31 input   60.00 | X-H torsion
[ 3847 1247 1246 1244 ] final  -58.37 input   60.00 | X-H torsion
[ 4507 1931 1930 1928 ] final -134.83 input   60.00 | X-H torsion
[ 3677 1070 1069 1066 ] final  -23.29 input   60.00 | X-H torsion

> <Gold.Protein.ActiveResidues>
 GLY266  PHE267  PRO268  GLU269  MET310  HIS334  ASP335  TRP336  GLY337  GLY338 
 MET339  LEU340  TRP342  TYR343  LEU358  ASN359  THR360  PRO361  ILE363  ALA365 
 MET369  SER370  PRO371  LEU372  GLU373  SER374  ILE375  LYS376  ALA377  ASN378 
 VAL380  PHE381  ASP382  TYR383  GLN384  PHE387  GLN388  LEU397  SER407  LEU408 
 PHE409  ARG410  LEU417  MET419  LEU428  PHE429  PHE459  TRP465  TYR466  ASN468 
 MET469  GLU470  ASN472  TRP473  ALA476  ASP496  PHE497  VAL498  LEU499  MET503 
 HIS524  TRP525 

> <Gold.Protein.RotatedAtoms>
   -3.7215  -29.5148  -30.2227 H   0  0  0  0  0  0  0  0  0  0  0  0  # atno 3525 bound_to 925 
  -12.7123  -23.5523  -30.8214 H   0  0  0  0  0  0  0  0  0  0  0  0  # atno 3677 bound_to 1070
  -10.0513  -36.5596  -34.1452 H   0  0  0  0  0  0  0  0  0  0  0  0  # atno 3781 bound_to 1176
  -16.0648  -27.8943  -37.2307 H   0  0  0  0  0  0  0  0  0  0  0  0  # atno 3847 bound_to 1247
  -13.3547  -24.2901  -40.4785 H   0  0  0  0  0  0  0  0  0  0  0  0  # atno 4507 bound_to 1931
   -2.9254  -33.6810  -36.6964 H   0  0  0  0  0  0  0  0  0  0  0  0  # atno 4531 bound_to 1957
   -2.7622  -30.0456  -29.0202 LP  0  0  0  0  0  0  0  0  0  0  0  0  # atno 5201 bound_to 925 
   -2.2536  -30.1255  -30.5699 LP  0  0  0  0  0  0  0  0  0  0  0  0  # atno 5202 bound_to 925 
   -9.3373  -36.6273  -32.6845 LP  0  0  0  0  0  0  0  0  0  0  0  0  # atno 5205 bound_to 1176
  -10.7220  -37.4485  -32.9585 LP  0  0  0  0  0  0  0  0  0  0  0  0  # atno 5206 bound_to 1176
   -2.2718  -32.1938  -36.7925 LP  0  0  0  0  0  0  0  0  0  0  0  0  # atno 5213 bound_to 1957
   -1.3340  -33.5154  -36.9937 LP  0  0  0  0  0  0  0  0  0  0  0  0  # atno 5214 bound_to 1957
  -14.6849  -27.4201  -37.9510 LP  0  0  0  0  0  0  0  0  0  0  0  0  # atno 5227 bound_to 1247
  -14.8086  -28.9241  -37.3271 LP  0  0  0  0  0  0  0  0  0  0  0  0  # atno 5228 bound_to 1247
  -12.4294  -24.0719  -39.1578 LP  0  0  0  0  0  0  0  0  0  0  0  0  # atno 5245 bound_to 1931
  -13.4087  -25.3741  -39.2661 LP  0  0  0  0  0  0  0  0  0  0  0  0  # atno 5246 bound_to 1931
  -11.2180  -23.2922  -31.4110 LP  0  0  0  0  0  0  0  0  0  0  0  0  # atno 5265 bound_to 1070
  -11.9184  -22.1851  -30.4361 LP  0  0  0  0  0  0  0  0  0  0  0  0  # atno 5266 bound_to 1070

$$$$
MSC-065|Lisa_paper2_min|sdf|12|dock4
  -GOLD-  10202014463D 1   1.00000     0.00000

 63 66  0  0  0  0  0  0  0  0  1 V2000
   -3.3597  -31.0757  -33.0931 C   0  0  0  0  0  0  0  0  0  0  0  0
   -4.0590  -31.9416  -32.2549 C   0  0  0  0  0  0  0  0  0  0  0  0
   -4.0406  -30.2150  -33.9589 C   0  0  0  0  0  0  0  0  0  0  0  0
   -5.4579  -31.9764  -32.2532 C   0  0  0  0  0  0  0  0  0  0  0  0
  -11.5213  -27.0324  -36.8659 C   0  0  0  0  0  0  0  0  0  0  0  0
  -17.2148  -24.6539  -37.5058 C   0  0  0  0  0  0  0  0  0  0  0  0
  -10.5529  -27.7857  -36.2024 C   0  0  0  0  0  0  0  0  0  0  0  0
  -18.5596  -24.5138  -37.8485 C   0  0  0  0  0  0  0  0  0  0  0  0
  -11.2270  -25.2456  -35.2666 C   0  0  0  0  0  0  0  0  0  0  0  0
  -16.5857  -23.3521  -39.4413 C   0  0  0  0  0  0  0  0  0  0  0  0
  -10.2585  -25.9989  -34.6031 C   0  0  0  0  0  0  0  0  0  0  0  0
   -5.4466  -30.2372  -33.9702 C   0  0  0  0  0  0  0  0  0  0  0  0
   -6.1331  -31.1097  -33.1248 C   0  0  0  0  0  0  0  0  0  0  0  0
  -11.8584  -25.7623  -36.3980 C   0  0  0  0  0  0  0  0  0  0  0  0
  -16.2278  -24.0730  -38.3021 C   0  0  0  0  0  0  0  0  0  0  0  0
   -9.9216  -27.2690  -35.0710 C   0  0  0  0  0  0  0  0  0  0  0  0
  -18.9175  -23.7927  -38.9878 C   0  0  0  0  0  0  0  0  0  0  0  0
  -17.9305  -23.2120  -39.7842 C   0  0  0  0  0  0  0  0  0  0  0  0
   -7.5110  -29.8954  -34.3563 C   0  0  0  0  0  0  0  0  0  0  0  0
   -8.5771  -31.5061  -32.7902 C   0  0  0  0  0  0  0  0  0  0  0  0
  -14.2094  -25.1838  -37.2116 C   0  0  0  0  0  0  0  0  0  0  0  0
   -9.5927  -25.4302  -33.3937 C   0  0  0  0  0  0  0  0  0  0  0  0
   -8.3649  -33.5930  -29.7950 C   0  0  0  0  0  0  0  0  0  0  0  0
   -9.2885  -31.2795  -30.1173 C   0  0  0  0  0  0  0  0  0  0  0  0
  -10.3418  -33.2238  -31.3083 C   0  0  0  0  0  0  0  0  0  0  0  0
   -8.7528  -29.3360  -34.9384 C   0  0  0  0  0  0  0  0  0  0  0  0
   -9.0364  -32.6338  -30.7767 C   0  0  0  0  0  0  0  0  0  0  0  0
   -6.3166  -29.4958  -34.7232 N   0  0  0  0  0  0  0  0  0  0  0  0
   -7.4782  -30.8769  -33.3859 N   0  0  0  0  0  0  0  0  0  0  0  0
  -12.8271  -25.0090  -37.0619 N   0  0  0  0  0  0  0  0  0  0  0  0
  -14.8614  -24.2152  -37.9531 N   0  0  0  0  0  0  0  0  0  0  0  0
   -9.7207  -31.2175  -33.1018 O   0  0  0  0  0  0  0  0  0  0  0  0
   -8.9735  -28.0215  -34.4323 O   0  0  0  0  0  0  0  0  0  0  0  0
   -8.1514  -32.4179  -31.8797 O   0  0  0  0  0  0  0  0  0  0  0  0
  -14.9246  -26.4536  -36.3652 S   0  0  0  0  0  0  0  0  0  0  0  0
  -20.5999  -23.6575  -39.3609 Cl  0  0  0  0  0  0  0  0  0  0  0  0
  -18.3108  -22.3090  -41.2086 Cl  0  0  0  0  0  0  0  0  0  0  0  0
   -2.2732  -31.0685  -33.0749 H   0  0  0  0  0  0  0  0  0  0  0  0
   -3.5091  -32.6029  -31.5899 H   0  0  0  0  0  0  0  0  0  0  0  0
   -3.4891  -29.5433  -34.6094 H   0  0  0  0  0  0  0  0  0  0  0  0
   -5.9780  -32.6591  -31.5917 H   0  0  0  0  0  0  0  0  0  0  0  0
  -12.0069  -27.4453  -37.7465 H   0  0  0  0  0  0  0  0  0  0  0  0
  -16.9469  -25.2165  -36.6151 H   0  0  0  0  0  0  0  0  0  0  0  0
  -10.2949  -28.7745  -36.5722 H   0  0  0  0  0  0  0  0  0  0  0  0
  -19.3154  -24.9718  -37.2155 H   0  0  0  0  0  0  0  0  0  0  0  0
  -11.4888  -24.2551  -34.9006 H   0  0  0  0  0  0  0  0  0  0  0  0
  -15.8112  -22.9024  -40.0594 H   0  0  0  0  0  0  0  0  0  0  0  0
  -10.1526  -25.6984  -32.4900 H   0  0  0  0  0  0  0  0  0  0  0  0
   -8.5665  -25.8046  -33.2928 H   0  0  0  0  0  0  0  0  0  0  0  0
   -9.5288  -24.3364  -33.4535 H   0  0  0  0  0  0  0  0  0  0  0  0
   -8.1823  -34.5662  -30.2645 H   0  0  0  0  0  0  0  0  0  0  0  0
   -7.4105  -33.1970  -29.4330 H   0  0  0  0  0  0  0  0  0  0  0  0
   -9.0110  -33.7833  -28.9303 H   0  0  0  0  0  0  0  0  0  0  0  0
   -9.7703  -30.5880  -30.8180 H   0  0  0  0  0  0  0  0  0  0  0  0
   -8.3447  -30.8089  -29.8190 H   0  0  0  0  0  0  0  0  0  0  0  0
   -9.9243  -31.3738  -29.2310 H   0  0  0  0  0  0  0  0  0  0  0  0
  -10.8237  -32.5359  -32.0125 H   0  0  0  0  0  0  0  0  0  0  0  0
  -10.1749  -34.1786  -31.8174 H   0  0  0  0  0  0  0  0  0  0  0  0
  -11.0574  -33.3839  -30.4937 H   0  0  0  0  0  0  0  0  0  0  0  0
   -8.7010  -29.2766  -36.0380 H   0  0  0  0  0  0  0  0  0  0  0  0
   -9.6320  -29.9536  -34.6920 H   0  0  0  0  0  0  0  0  0  0  0  0
  -12.4886  -24.1465  -37.5054 H   0  0  0  0  0  0  0  0  0  0  0  0
  -14.2849  -23.4194  -38.2149 H   0  0  0  0  0  0  0  0  0  0  0  0
  1  2  2  0  0  0  0
  1  3  1  0  0  0  0
  2  4  1  0  0  0  0
  3 12  2  0  0  0  0
  4 13  2  0  0  0  0
  5  7  2  0  0  0  0
  5 14  1  0  0  0  0
  6  8  1  0  0  0  0
  6 15  2  0  0  0  0
  7 16  1  0  0  0  0
  8 17  2  0  0  0  0
  9 11  1  0  0  0  0
  9 14  2  0  0  0  0
 10 15  1  0  0  0  0
 10 18  2  0  0  0  0
 11 16  2  0  0  0  0
 11 22  1  0  0  0  0
 12 13  1  0  0  0  0
 12 28  1  0  0  0  0
 13 29  1  0  0  0  0
 14 30  1  0  0  0  0
 15 31  1  0  0  0  0
 16 33  1  0  0  0  0
 17 18  1  0  0  0  0
 17 36  1  0  0  0  0
 18 37  1  0  0  0  0
 19 26  1  0  0  0  0
 19 28  2  0  0  0  0
 19 29  1  0  0  0  0
 20 29  1  0  0  0  0
 20 32  2  0  0  0  0
 20 34  1  0  0  0  0
 21 30  1  0  0  0  0
 21 31  1  0  0  0  0
 21 35  2  0  0  0  0
 23 27  1  0  0  0  0
 24 27  1  0  0  0  0
 25 27  1  0  0  0  0
 26 33  1  0  0  0  0
 27 34  1  0  0  0  0
  1 38  1  0  0  0  0
  2 39  1  0  0  0  0
  3 40  1  0  0  0  0
  4 41  1  0  0  0  0
  5 42  1  0  0  0  0
  6 43  1  0  0  0  0
  7 44  1  0  0  0  0
  8 45  1  0  0  0  0
  9 46  1  0  0  0  0
 10 47  1  0  0  0  0
 22 48  1  0  0  0  0
 22 49  1  0  0  0  0
 22 50  1  0  0  0  0
 23 51  1  0  0  0  0
 23 52  1  0  0  0  0
 23 53  1  0  0  0  0
 24 54  1  0  0  0  0
 24 55  1  0  0  0  0
 24 56  1  0  0  0  0
 25 57  1  0  0  0  0
 25 58  1  0  0  0  0
 25 59  1  0  0  0  0
 26 60  1  0  0  0  0
 26 61  1  0  0  0  0
 30 62  1  0  0  0  0
 31 63  1  0  0  0  0
M  END
> <Clean Energy>
84.5744

> <SourceTag>
Livi_174a

> <Activity_FLAP>
100

> <Activity_sEH>
0.7

> <Gold.Version>
5.2

> <Gold.Id.Protein>
6HGV|6HGV_protein|mol2

> <Gold.PLP.Fitness>
85.9178

> <Gold.PLP.PLP>
-86.5034

> <Gold.PLP.part.hbond>
-9.1152

> <Gold.PLP.part.metal>
0.0000

> <Gold.PLP.part.buried>
10.1744

> <Gold.PLP.part.nonpolar>
-87.8470

> <Gold.PLP.part.repulsive>
0.0425

> <Gold.PLP.ligand.clash>
2.1235

> <Gold.PLP.ligand.torsion>
1.3771

> <Gold.PLP.Chemscore.Hbond>
0.6305

> <Gold.PLP.Chemscore.CHOScore>
0.0000

> <Gold.PLP.Chemscore.Metal>
0.0000

> <Gold.Chemscore.Hbonds>
donor molecule, donor type, donor heavy atom, donor atom, acceptor molecule, acceptor atom, score
      L1  H    30    62       P1  1931  0.24
      L1  H    31    63       P1   854  0.01
      P1  H  1247  3847       L1    35  0.38

> <Gold.PLP.Chemscore.Internal.Correction>
0.8090

> <Gold.Protein.RotatedTorsions>
[ 3525  925  924  922 ] final  173.40 input   59.99 | X-H torsion
[ 3781 1176 1175 1172 ] final -107.84 input   60.00 | X-H torsion
[ 4531 1957 1955 1953 ] final  160.65 input   60.00 | X-H torsion
[ 3847 1247 1246 1244 ] final  -83.41 input   60.00 | X-H torsion
[ 4507 1931 1930 1928 ] final -118.03 input   60.00 | X-H torsion
[ 3677 1070 1069 1066 ] final  -57.09 input   60.00 | X-H torsion

> <Gold.Protein.ActiveResidues>
 GLY266  PHE267  PRO268  GLU269  MET310  HIS334  ASP335  TRP336  GLY337  GLY338 
 MET339  LEU340  TRP342  TYR343  LEU358  ASN359  THR360  PRO361  ILE363  ALA365 
 MET369  SER370  PRO371  LEU372  GLU373  SER374  ILE375  LYS376  ALA377  ASN378 
 VAL380  PHE381  ASP382  TYR383  GLN384  PHE387  GLN388  LEU397  SER407  LEU408 
 PHE409  ARG410  LEU417  MET419  LEU428  PHE429  PHE459  TRP465  TYR466  ASN468 
 MET469  GLU470  ASN472  TRP473  ALA476  ASP496  PHE497  VAL498  LEU499  MET503 
 HIS524  TRP525 

> <Gold.Protein.RotatedAtoms>
   -2.1750  -30.2559  -29.4919 H   0  0  0  0  0  0  0  0  0  0  0  0  # atno 3525 bound_to 925 
  -12.3602  -23.8141  -31.1436 H   0  0  0  0  0  0  0  0  0  0  0  0  # atno 3677 bound_to 1070
   -9.5973  -36.3486  -33.8998 H   0  0  0  0  0  0  0  0  0  0  0  0  # atno 3781 bound_to 1176
  -15.9525  -27.5468  -37.4077 H   0  0  0  0  0  0  0  0  0  0  0  0  # atno 3847 bound_to 1247
  -13.5045  -24.5182  -40.4605 H   0  0  0  0  0  0  0  0  0  0  0  0  # atno 4507 bound_to 1931
   -1.7457  -33.9556  -36.9254 H   0  0  0  0  0  0  0  0  0  0  0  0  # atno 4531 bound_to 1957
   -2.9046  -29.8135  -30.8776 LP  0  0  0  0  0  0  0  0  0  0  0  0  # atno 5201 bound_to 925 
   -3.6686  -29.6112  -29.4486 LP  0  0  0  0  0  0  0  0  0  0  0  0  # atno 5202 bound_to 925 
   -9.6812  -36.9647  -32.3960 LP  0  0  0  0  0  0  0  0  0  0  0  0  # atno 5205 bound_to 1176
  -10.8354  -37.3235  -33.4941 LP  0  0  0  0  0  0  0  0  0  0  0  0  # atno 5206 bound_to 1176
   -3.1044  -33.1034  -36.6500 LP  0  0  0  0  0  0  0  0  0  0  0  0  # atno 5213 bound_to 1957
   -1.6894  -32.3293  -36.9056 LP  0  0  0  0  0  0  0  0  0  0  0  0  # atno 5214 bound_to 1957
  -14.4239  -27.7341  -37.9333 LP  0  0  0  0  0  0  0  0  0  0  0  0  # atno 5227 bound_to 1247
  -15.1826  -28.9600  -37.1665 LP  0  0  0  0  0  0  0  0  0  0  0  0  # atno 5228 bound_to 1247
  -12.4481  -23.9121  -39.3813 LP  0  0  0  0  0  0  0  0  0  0  0  0  # atno 5245 bound_to 1931
  -13.2390  -25.3043  -39.0606 LP  0  0  0  0  0  0  0  0  0  0  0  0  # atno 5246 bound_to 1931
  -11.0850  -22.8047  -31.1987 LP  0  0  0  0  0  0  0  0  0  0  0  0  # atno 5265 bound_to 1070
  -12.4059  -22.4091  -30.3239 LP  0  0  0  0  0  0  0  0  0  0  0  0  # atno 5266 bound_to 1070

$$$$
MSC-067|Lisa_paper2_min|sdf|13|dock9
  -GOLD-  10202014483D 1   1.00000     0.00000

 48 51  0  0  0  0  0  0  0  0  1 V2000
   -3.5238  -31.2383  -33.6850 C   0  0  0  0  0  0  0  0  0  0  0  0
   -3.9188  -32.3834  -34.3803 C   0  0  0  0  0  0  0  0  0  0  0  0
   -4.4069  -30.1675  -33.4976 C   0  0  0  0  0  0  0  0  0  0  0  0
   -5.2071  -32.5012  -34.9126 C   0  0  0  0  0  0  0  0  0  0  0  0
  -11.6087  -27.0645  -37.0825 C   0  0  0  0  0  0  0  0  0  0  0  0
  -16.7816  -23.2676  -39.4727 C   0  0  0  0  0  0  0  0  0  0  0  0
  -10.6380  -27.8012  -36.4041 C   0  0  0  0  0  0  0  0  0  0  0  0
  -18.1373  -23.0842  -39.7451 C   0  0  0  0  0  0  0  0  0  0  0  0
  -11.4064  -25.2948  -35.4503 C   0  0  0  0  0  0  0  0  0  0  0  0
  -17.3494  -24.6907  -37.6048 C   0  0  0  0  0  0  0  0  0  0  0  0
  -10.4356  -26.0316  -34.7717 C   0  0  0  0  0  0  0  0  0  0  0  0
   -5.7050  -30.2686  -34.0259 C   0  0  0  0  0  0  0  0  0  0  0  0
   -6.0694  -31.4226  -34.7140 C   0  0  0  0  0  0  0  0  0  0  0  0
  -11.9929  -25.8111  -36.6056 C   0  0  0  0  0  0  0  0  0  0  0  0
  -16.3877  -24.0709  -38.4026 C   0  0  0  0  0  0  0  0  0  0  0  0
  -10.0514  -27.2849  -35.2487 C   0  0  0  0  0  0  0  0  0  0  0  0
  -19.0989  -23.7041  -38.9473 C   0  0  0  0  0  0  0  0  0  0  0  0
  -18.7050  -24.5073  -37.8770 C   0  0  0  0  0  0  0  0  0  0  0  0
   -7.7309  -29.9641  -34.6281 C   0  0  0  0  0  0  0  0  0  0  0  0
  -14.3605  -25.1809  -37.3275 C   0  0  0  0  0  0  0  0  0  0  0  0
   -9.8182  -25.4635  -33.5366 C   0  0  0  0  0  0  0  0  0  0  0  0
   -9.0818  -29.4225  -34.8663 C   0  0  0  0  0  0  0  0  0  0  0  0
   -6.7498  -29.3742  -33.9826 N   0  0  0  0  0  0  0  0  0  0  0  0
   -7.3700  -31.2001  -35.0876 N   0  0  0  0  0  0  0  0  0  0  0  0
  -12.9639  -25.0745  -37.2846 N   0  0  0  0  0  0  0  0  0  0  0  0
  -15.0099  -24.2574  -38.1266 N   0  0  0  0  0  0  0  0  0  0  0  0
   -9.1011  -28.0205  -34.5959 O   0  0  0  0  0  0  0  0  0  0  0  0
  -15.0819  -26.3110  -36.3063 S   0  0  0  0  0  0  0  0  0  0  0  0
  -20.7623  -23.4354  -39.3339 Cl  0  0  0  0  0  0  0  0  0  0  0  0
  -19.8491  -25.2999  -36.8514 Cl  0  0  0  0  0  0  0  0  0  0  0  0
   -2.5158  -31.1767  -33.2824 H   0  0  0  0  0  0  0  0  0  0  0  0
   -3.2117  -33.1989  -34.5119 H   0  0  0  0  0  0  0  0  0  0  0  0
   -4.0901  -29.2827  -32.9549 H   0  0  0  0  0  0  0  0  0  0  0  0
   -5.5157  -33.3896  -35.4516 H   0  0  0  0  0  0  0  0  0  0  0  0
  -12.0590  -27.4768  -37.9819 H   0  0  0  0  0  0  0  0  0  0  0  0
  -16.0403  -22.7813  -40.1016 H   0  0  0  0  0  0  0  0  0  0  0  0
  -10.3431  -28.7768  -36.7810 H   0  0  0  0  0  0  0  0  0  0  0  0
  -18.4260  -22.4561  -40.5842 H   0  0  0  0  0  0  0  0  0  0  0  0
  -11.7050  -24.3175  -35.0771 H   0  0  0  0  0  0  0  0  0  0  0  0
  -17.0359  -25.3151  -36.7704 H   0  0  0  0  0  0  0  0  0  0  0  0
  -10.3943  -25.7604  -32.6524 H   0  0  0  0  0  0  0  0  0  0  0  0
   -8.7851  -25.8114  -33.4134 H   0  0  0  0  0  0  0  0  0  0  0  0
   -9.7828  -24.3677  -33.5788 H   0  0  0  0  0  0  0  0  0  0  0  0
   -9.4132  -29.5713  -35.9097 H   0  0  0  0  0  0  0  0  0  0  0  0
   -9.8397  -29.9045  -34.2234 H   0  0  0  0  0  0  0  0  0  0  0  0
   -7.9556  -31.8390  -35.6093 H   0  0  0  0  0  0  0  0  0  0  0  0
  -12.6117  -24.2845  -37.8389 H   0  0  0  0  0  0  0  0  0  0  0  0
  -14.4115  -23.5291  -38.5083 H   0  0  0  0  0  0  0  0  0  0  0  0
  1  2  2  0  0  0  0
  1  3  1  0  0  0  0
  2  4  1  0  0  0  0
  3 12  2  0  0  0  0
  4 13  2  0  0  0  0
  5  7  2  0  0  0  0
  5 14  1  0  0  0  0
  6  8  1  0  0  0  0
  6 15  2  0  0  0  0
  7 16  1  0  0  0  0
  8 17  2  0  0  0  0
  9 11  1  0  0  0  0
  9 14  2  0  0  0  0
 10 15  1  0  0  0  0
 10 18  2  0  0  0  0
 11 16  2  0  0  0  0
 11 21  1  0  0  0  0
 12 13  1  0  0  0  0
 12 23  1  0  0  0  0
 13 24  1  0  0  0  0
 14 25  1  0  0  0  0
 15 26  1  0  0  0  0
 16 27  1  0  0  0  0
 17 18  1  0  0  0  0
 17 29  1  0  0  0  0
 18 30  1  0  0  0  0
 19 22  1  0  0  0  0
 19 23  2  0  0  0  0
 19 24  1  0  0  0  0
 20 25  1  0  0  0  0
 20 26  1  0  0  0  0
 20 28  2  0  0  0  0
 22 27  1  0  0  0  0
  1 31  1  0  0  0  0
  2 32  1  0  0  0  0
  3 33  1  0  0  0  0
  4 34  1  0  0  0  0
  5 35  1  0  0  0  0
  6 36  1  0  0  0  0
  7 37  1  0  0  0  0
  8 38  1  0  0  0  0
  9 39  1  0  0  0  0
 10 40  1  0  0  0  0
 21 41  1  0  0  0  0
 21 42  1  0  0  0  0
 21 43  1  0  0  0  0
 22 44  1  0  0  0  0
 22 45  1  0  0  0  0
 24 46  1  0  0  0  0
 25 47  1  0  0  0  0
 26 48  1  0  0  0  0
M  END
> <Clean Energy>
84.5744

> <SourceTag>
Livi_174a

> <Activity_FLAP>
100

> <Activity_sEH>
0.7

> <Gold.Version>
5.2

> <Gold.Id.Protein>
6HGV|6HGV_protein|mol2

> <Gold.PLP.Fitness>
90.1552

> <Gold.PLP.PLP>
-89.1724

> <Gold.PLP.part.hbond>
-6.7472

> <Gold.PLP.part.metal>
0.0000

> <Gold.PLP.part.buried>
11.9891

> <Gold.PLP.part.nonpolar>
-93.4054

> <Gold.PLP.part.repulsive>
0.0366

> <Gold.PLP.ligand.clash>
0.9744

> <Gold.PLP.ligand.torsion>
1.3704

> <Gold.PLP.Chemscore.Hbond>
0.8132

> <Gold.PLP.Chemscore.CHOScore>
0.0000

> <Gold.PLP.Chemscore.Metal>
0.0000

> <Gold.Chemscore.Hbonds>
donor molecule, donor type, donor heavy atom, donor atom, acceptor molecule, acceptor atom, score
      L1  H    25    47       P1  1931  0.46
      P1  H  1247  3847       L1    28  0.35

> <Gold.PLP.Chemscore.Internal.Correction>
0.6115

> <Gold.Protein.RotatedTorsions>
[ 3525  925  924  922 ] final  133.66 input   59.99 | X-H torsion
[ 3781 1176 1175 1172 ] final  -23.16 input   60.00 | X-H torsion
[ 4531 1957 1955 1953 ] final  -48.00 input   60.00 | X-H torsion
[ 3847 1247 1246 1244 ] final  -68.90 input   60.00 | X-H torsion
[ 4507 1931 1930 1928 ] final -142.05 input   60.00 | X-H torsion
[ 3677 1070 1069 1066 ] final -101.17 input   60.00 | X-H torsion

> <Gold.Protein.ActiveResidues>
 GLY266  PHE267  PRO268  GLU269  MET310  HIS334  ASP335  TRP336  GLY337  GLY338 
 MET339  LEU340  TRP342  TYR343  LEU358  ASN359  THR360  PRO361  ILE363  ALA365 
 MET369  SER370  PRO371  LEU372  GLU373  SER374  ILE375  LYS376  ALA377  ASN378 
 VAL380  PHE381  ASP382  TYR383  GLN384  PHE387  GLN388  LEU397  SER407  LEU408 
 PHE409  ARG410  LEU417  MET419  LEU428  PHE429  PHE459  TRP465  TYR466  ASN468 
 MET469  GLU470  ASN472  TRP473  ALA476  ASP496  PHE497  VAL498  LEU499  MET503 
 HIS524  TRP525 

> <Gold.Protein.RotatedAtoms>
   -2.0657  -30.2462  -30.1187 H   0  0  0  0  0  0  0  0  0  0  0  0  # atno 3525 bound_to 925 
  -11.7180  -23.7459  -31.4206 H   0  0  0  0  0  0  0  0  0  0  0  0  # atno 3677 bound_to 1070
  -10.6542  -37.0346  -33.9509 H   0  0  0  0  0  0  0  0  0  0  0  0  # atno 3781 bound_to 1176
  -16.0371  -27.7399  -37.3006 H   0  0  0  0  0  0  0  0  0  0  0  0  # atno 3847 bound_to 1247
  -13.2817  -24.1985  -40.4640 H   0  0  0  0  0  0  0  0  0  0  0  0  # atno 4507 bound_to 1931
   -2.1705  -32.1952  -36.8142 H   0  0  0  0  0  0  0  0  0  0  0  0  # atno 4531 bound_to 1957
   -3.4597  -29.5927  -30.6457 LP  0  0  0  0  0  0  0  0  0  0  0  0  # atno 5201 bound_to 925 
   -3.2236  -29.8417  -29.0492 LP  0  0  0  0  0  0  0  0  0  0  0  0  # atno 5202 bound_to 925 
   -9.2915  -36.3215  -33.4194 LP  0  0  0  0  0  0  0  0  0  0  0  0  # atno 5205 bound_to 1176
  -10.1606  -37.2759  -32.4192 LP  0  0  0  0  0  0  0  0  0  0  0  0  # atno 5206 bound_to 1176
   -1.3809  -33.6077  -36.9864 LP  0  0  0  0  0  0  0  0  0  0  0  0  # atno 5213 bound_to 1957
   -2.9851  -33.5977  -36.6812 LP  0  0  0  0  0  0  0  0  0  0  0  0  # atno 5214 bound_to 1957
  -14.5603  -27.5399  -37.9540 LP  0  0  0  0  0  0  0  0  0  0  0  0  # atno 5227 bound_to 1247
  -14.9610  -28.9596  -37.2537 LP  0  0  0  0  0  0  0  0  0  0  0  0  # atno 5228 bound_to 1247
  -12.4381  -24.1549  -39.0732 LP  0  0  0  0  0  0  0  0  0  0  0  0  # atno 5245 bound_to 1931
  -13.4734  -25.3834  -39.3653 LP  0  0  0  0  0  0  0  0  0  0  0  0  # atno 5246 bound_to 1931
  -11.3460  -22.2965  -30.7810 LP  0  0  0  0  0  0  0  0  0  0  0  0  # atno 5265 bound_to 1070
  -12.7917  -22.9858  -30.4627 LP  0  0  0  0  0  0  0  0  0  0  0  0  # atno 5266 bound_to 1070

$$$$
MSC-067|Lisa_paper2_min|sdf|13|dock3
  -GOLD-  10202014473D 1   1.00000     0.00000

 48 51  0  0  0  0  0  0  0  0  1 V2000
  -11.3134  -34.1277  -33.5109 C   0  0  0  0  0  0  0  0  0  0  0  0
  -11.4017  -34.3169  -34.8920 C   0  0  0  0  0  0  0  0  0  0  0  0
  -10.7165  -32.9788  -32.9768 C   0  0  0  0  0  0  0  0  0  0  0  0
  -10.8987  -33.3679  -35.7882 C   0  0  0  0  0  0  0  0  0  0  0  0
  -11.8735  -27.1967  -36.8208 C   0  0  0  0  0  0  0  0  0  0  0  0
  -17.0568  -23.4236  -39.2963 C   0  0  0  0  0  0  0  0  0  0  0  0
  -10.8927  -27.8895  -36.1113 C   0  0  0  0  0  0  0  0  0  0  0  0
  -18.4184  -23.2095  -39.5107 C   0  0  0  0  0  0  0  0  0  0  0  0
  -11.5618  -25.2815  -35.3814 C   0  0  0  0  0  0  0  0  0  0  0  0
  -17.5711  -24.7178  -37.3222 C   0  0  0  0  0  0  0  0  0  0  0  0
  -10.5809  -25.9743  -34.6719 C   0  0  0  0  0  0  0  0  0  0  0  0
  -10.2055  -32.0151  -33.8626 C   0  0  0  0  0  0  0  0  0  0  0  0
  -10.3085  -32.2317  -35.2339 C   0  0  0  0  0  0  0  0  0  0  0  0
  -12.2081  -25.8926  -36.4558 C   0  0  0  0  0  0  0  0  0  0  0  0
  -16.6332  -24.1777  -38.2020 C   0  0  0  0  0  0  0  0  0  0  0  0
  -10.2463  -27.2784  -35.0369 C   0  0  0  0  0  0  0  0  0  0  0  0
  -19.3563  -23.7497  -38.6308 C   0  0  0  0  0  0  0  0  0  0  0  0
  -18.9327  -24.5038  -37.5365 C   0  0  0  0  0  0  0  0  0  0  0  0
   -9.3073  -30.3108  -34.7836 C   0  0  0  0  0  0  0  0  0  0  0  0
  -14.5890  -25.2426  -37.1136 C   0  0  0  0  0  0  0  0  0  0  0  0
   -9.8992  -25.3048  -33.5246 C   0  0  0  0  0  0  0  0  0  0  0  0
   -8.6350  -29.0275  -35.0597 C   0  0  0  0  0  0  0  0  0  0  0  0
   -9.5810  -30.8169  -33.6021 N   0  0  0  0  0  0  0  0  0  0  0  0
   -9.7260  -31.1259  -35.7982 N   0  0  0  0  0  0  0  0  0  0  0  0
  -13.1893  -25.1999  -37.1657 N   0  0  0  0  0  0  0  0  0  0  0  0
  -15.2495  -24.3954  -37.9849 N   0  0  0  0  0  0  0  0  0  0  0  0
   -9.2869  -27.9721  -34.3523 O   0  0  0  0  0  0  0  0  0  0  0  0
  -15.2897  -26.1997  -35.9164 S   0  0  0  0  0  0  0  0  0  0  0  0
  -21.0282  -23.4466  -38.9487 Cl  0  0  0  0  0  0  0  0  0  0  0  0
  -20.0462  -25.1971  -36.4102 Cl  0  0  0  0  0  0  0  0  0  0  0  0
  -11.7142  -34.8832  -32.8397 H   0  0  0  0  0  0  0  0  0  0  0  0
  -11.8691  -35.2193  -35.2786 H   0  0  0  0  0  0  0  0  0  0  0  0
  -10.6539  -32.8412  -31.9021 H   0  0  0  0  0  0  0  0  0  0  0  0
  -10.9673  -33.5125  -36.8603 H   0  0  0  0  0  0  0  0  0  0  0  0
  -12.3707  -27.6830  -37.6563 H   0  0  0  0  0  0  0  0  0  0  0  0
  -16.3343  -22.9995  -39.9889 H   0  0  0  0  0  0  0  0  0  0  0  0
  -10.6367  -28.9052  -36.4009 H   0  0  0  0  0  0  0  0  0  0  0  0
  -18.7306  -22.6206  -40.3696 H   0  0  0  0  0  0  0  0  0  0  0  0
  -11.8216  -24.2645  -35.0956 H   0  0  0  0  0  0  0  0  0  0  0  0
  -17.2344  -25.3042  -36.4694 H   0  0  0  0  0  0  0  0  0  0  0  0
  -10.4445  -25.4976  -32.5933 H   0  0  0  0  0  0  0  0  0  0  0  0
   -8.8702  -25.6670  -33.4083 H   0  0  0  0  0  0  0  0  0  0  0  0
   -9.8400  -24.2198  -33.6767 H   0  0  0  0  0  0  0  0  0  0  0  0
   -7.5740  -29.0374  -34.7518 H   0  0  0  0  0  0  0  0  0  0  0  0
   -8.6486  -28.7767  -36.1353 H   0  0  0  0  0  0  0  0  0  0  0  0
   -9.6262  -30.9476  -36.7889 H   0  0  0  0  0  0  0  0  0  0  0  0
  -12.8410  -24.5035  -37.8358 H   0  0  0  0  0  0  0  0  0  0  0  0
  -14.6472  -23.7506  -38.4906 H   0  0  0  0  0  0  0  0  0  0  0  0
  1  2  2  0  0  0  0
  1  3  1  0  0  0  0
  2  4  1  0  0  0  0
  3 12  2  0  0  0  0
  4 13  2  0  0  0  0
  5  7  2  0  0  0  0
  5 14  1  0  0  0  0
  6  8  1  0  0  0  0
  6 15  2  0  0  0  0
  7 16  1  0  0  0  0
  8 17  2  0  0  0  0
  9 11  1  0  0  0  0
  9 14  2  0  0  0  0
 10 15  1  0  0  0  0
 10 18  2  0  0  0  0
 11 16  2  0  0  0  0
 11 21  1  0  0  0  0
 12 13  1  0  0  0  0
 12 23  1  0  0  0  0
 13 24  1  0  0  0  0
 14 25  1  0  0  0  0
 15 26  1  0  0  0  0
 16 27  1  0  0  0  0
 17 18  1  0  0  0  0
 17 29  1  0  0  0  0
 18 30  1  0  0  0  0
 19 22  1  0  0  0  0
 19 23  2  0  0  0  0
 19 24  1  0  0  0  0
 20 25  1  0  0  0  0
 20 26  1  0  0  0  0
 20 28  2  0  0  0  0
 22 27  1  0  0  0  0
  1 31  1  0  0  0  0
  2 32  1  0  0  0  0
  3 33  1  0  0  0  0
  4 34  1  0  0  0  0
  5 35  1  0  0  0  0
  6 36  1  0  0  0  0
  7 37  1  0  0  0  0
  8 38  1  0  0  0  0
  9 39  1  0  0  0  0
 10 40  1  0  0  0  0
 21 41  1  0  0  0  0
 21 42  1  0  0  0  0
 21 43  1  0  0  0  0
 22 44  1  0  0  0  0
 22 45  1  0  0  0  0
 24 46  1  0  0  0  0
 25 47  1  0  0  0  0
 26 48  1  0  0  0  0
M  END
> <Clean Energy>
84.5744

> <SourceTag>
Livi_174a

> <Activity_FLAP>
100

> <Activity_sEH>
0.7

> <Gold.Version>
5.2

> <Gold.Id.Protein>
6HGV|6HGV_protein|mol2

> <Gold.PLP.Fitness>
89.9073

> <Gold.PLP.PLP>
-86.5849

> <Gold.PLP.part.hbond>
-8.8244

> <Gold.PLP.part.metal>
0.0000

> <Gold.PLP.part.buried>
11.1346

> <Gold.PLP.part.nonpolar>
-88.6212

> <Gold.PLP.part.repulsive>
0.0734

> <Gold.PLP.ligand.clash>
0.4277

> <Gold.PLP.ligand.torsion>
1.3791

> <Gold.PLP.Chemscore.Hbond>
1.3383

> <Gold.PLP.Chemscore.CHOScore>
0.0000

> <Gold.PLP.Chemscore.Metal>
0.0000

> <Gold.Chemscore.Hbonds>
donor molecule, donor type, donor heavy atom, donor atom, acceptor molecule, acceptor atom, score
      L1  H    24    46       P1  1255  0.58
      L1  H    25    47       P1  1931  0.66
      P1  H  1247  3847       L1    28  0.10

> <Gold.PLP.Chemscore.Internal.Correction>
0.6593

> <Gold.Protein.RotatedTorsions>
[ 3525  925  924  922 ] final    6.91 input   59.99 | X-H torsion
[ 3781 1176 1175 1172 ] final  116.71 input   60.00 | X-H torsion
[ 4531 1957 1955 1953 ] final  -13.74 input   60.00 | X-H torsion
[ 3847 1247 1246 1244 ] final  -44.33 input   60.00 | X-H torsion
[ 4507 1931 1930 1928 ] final -131.79 input   60.00 | X-H torsion
[ 3677 1070 1069 1066 ] final  -98.50 input   60.00 | X-H torsion

> <Gold.Protein.ActiveResidues>
 GLY266  PHE267  PRO268  GLU269  MET310  HIS334  ASP335  TRP336  GLY337  GLY338 
 MET339  LEU340  TRP342  TYR343  LEU358  ASN359  THR360  PRO361  ILE363  ALA365 
 MET369  SER370  PRO371  LEU372  GLU373  SER374  ILE375  LYS376  ALA377  ASN378 
 VAL380  PHE381  ASP382  TYR383  GLN384  PHE387  GLN388  LEU397  SER407  LEU408 
 PHE409  ARG410  LEU417  MET419  LEU428  PHE429  PHE459  TRP465  TYR466  ASN468 
 MET469  GLU470  ASN472  TRP473  ALA476  ASP496  PHE497  VAL498  LEU499  MET503 
 HIS524  TRP525 

> <Gold.Protein.RotatedAtoms>
   -3.5296  -29.5673  -30.5635 H   0  0  0  0  0  0  0  0  0  0  0  0  # atno 3525 bound_to 925 
  -11.7568  -23.7635  -31.4115 H   0  0  0  0  0  0  0  0  0  0  0  0  # atno 3677 bound_to 1070
   -9.8845  -37.1126  -32.3714 H   0  0  0  0  0  0  0  0  0  0  0  0  # atno 3781 bound_to 1176
  -16.0558  -28.1091  -37.1520 H   0  0  0  0  0  0  0  0  0  0  0  0  # atno 3847 bound_to 1247
  -13.3841  -24.3301  -40.4806 H   0  0  0  0  0  0  0  0  0  0  0  0  # atno 4507 bound_to 1931
   -2.6898  -32.3544  -36.7183 H   0  0  0  0  0  0  0  0  0  0  0  0  # atno 4531 bound_to 1957
   -3.1264  -29.8868  -29.0197 LP  0  0  0  0  0  0  0  0  0  0  0  0  # atno 5201 bound_to 925 
   -2.0826  -30.2314  -30.2273 LP  0  0  0  0  0  0  0  0  0  0  0  0  # atno 5202 bound_to 925 
  -10.7934  -37.2117  -33.7176 LP  0  0  0  0  0  0  0  0  0  0  0  0  # atno 5205 bound_to 1176
   -9.4339  -36.3070  -33.7116 LP  0  0  0  0  0  0  0  0  0  0  0  0  # atno 5206 bound_to 1176
   -1.2544  -33.0670  -37.0011 LP  0  0  0  0  0  0  0  0  0  0  0  0  # atno 5213 bound_to 1957
   -2.5886  -33.9780  -36.7632 LP  0  0  0  0  0  0  0  0  0  0  0  0  # atno 5214 bound_to 1957
  -14.8767  -27.2952  -37.9235 LP  0  0  0  0  0  0  0  0  0  0  0  0  # atno 5227 bound_to 1247
  -14.6258  -28.8327  -37.4338 LP  0  0  0  0  0  0  0  0  0  0  0  0  # atno 5228 bound_to 1247
  -12.4287  -24.0393  -39.1957 LP  0  0  0  0  0  0  0  0  0  0  0  0  # atno 5245 bound_to 1931
  -13.3797  -25.3664  -39.2260 LP  0  0  0  0  0  0  0  0  0  0  0  0  # atno 5246 bound_to 1931
  -11.3177  -22.3179  -30.8070 LP  0  0  0  0  0  0  0  0  0  0  0  0  # atno 5265 bound_to 1070
  -12.7808  -22.9468  -30.4459 LP  0  0  0  0  0  0  0  0  0  0  0  0  # atno 5266 bound_to 1070

$$$$
MSC-067|Lisa_paper2_min|sdf|13|dock6
  -GOLD-  10202014483D 1   1.00000     0.00000

 48 51  0  0  0  0  0  0  0  0  1 V2000
   -4.0840  -31.8747  -34.8127 C   0  0  0  0  0  0  0  0  0  0  0  0
   -4.7965  -33.0291  -35.1451 C   0  0  0  0  0  0  0  0  0  0  0  0
   -4.7476  -30.6763  -34.5209 C   0  0  0  0  0  0  0  0  0  0  0  0
   -6.1944  -33.0294  -35.1980 C   0  0  0  0  0  0  0  0  0  0  0  0
  -11.9373  -27.2072  -36.8515 C   0  0  0  0  0  0  0  0  0  0  0  0
  -16.9661  -23.3534  -39.4340 C   0  0  0  0  0  0  0  0  0  0  0  0
  -10.9740  -27.9289  -36.1468 C   0  0  0  0  0  0  0  0  0  0  0  0
  -18.3214  -23.1485  -39.6931 C   0  0  0  0  0  0  0  0  0  0  0  0
  -11.4879  -25.2691  -35.4808 C   0  0  0  0  0  0  0  0  0  0  0  0
  -17.5371  -24.6913  -37.5051 C   0  0  0  0  0  0  0  0  0  0  0  0
  -10.5246  -25.9909  -34.7760 C   0  0  0  0  0  0  0  0  0  0  0  0
   -6.1518  -30.6584  -34.5695 C   0  0  0  0  0  0  0  0  0  0  0  0
   -6.8340  -31.8249  -34.9038 C   0  0  0  0  0  0  0  0  0  0  0  0
  -12.1942  -25.8771  -36.5185 C   0  0  0  0  0  0  0  0  0  0  0  0
  -16.5741  -24.1248  -38.3400 C   0  0  0  0  0  0  0  0  0  0  0  0
  -10.2676  -27.3209  -35.1091 C   0  0  0  0  0  0  0  0  0  0  0  0
  -19.2844  -23.7151  -38.8582 C   0  0  0  0  0  0  0  0  0  0  0  0
  -18.8923  -24.4865  -37.7641 C   0  0  0  0  0  0  0  0  0  0  0  0
   -8.2248  -30.1490  -34.5133 C   0  0  0  0  0  0  0  0  0  0  0  0
  -14.5574  -25.2250  -37.2355 C   0  0  0  0  0  0  0  0  0  0  0  0
   -9.7778  -25.3242  -33.6682 C   0  0  0  0  0  0  0  0  0  0  0  0
   -9.5201  -29.4570  -34.3783 C   0  0  0  0  0  0  0  0  0  0  0  0
   -7.0321  -29.6282  -34.3303 N   0  0  0  0  0  0  0  0  0  0  0  0
   -8.1579  -31.4698  -34.8599 N   0  0  0  0  0  0  0  0  0  0  0  0
  -13.1578  -25.1555  -37.2237 N   0  0  0  0  0  0  0  0  0  0  0  0
  -15.1968  -24.3332  -38.0775 N   0  0  0  0  0  0  0  0  0  0  0  0
   -9.3265  -28.0431  -34.4286 O   0  0  0  0  0  0  0  0  0  0  0  0
  -15.2893  -26.2709  -36.1352 S   0  0  0  0  0  0  0  0  0  0  0  0
  -20.9469  -23.4222  -39.2301 Cl  0  0  0  0  0  0  0  0  0  0  0  0
  -20.0381  -25.2127  -36.6923 Cl  0  0  0  0  0  0  0  0  0  0  0  0
   -2.9979  -31.9061  -34.7793 H   0  0  0  0  0  0  0  0  0  0  0  0
   -4.2550  -33.9452  -35.3683 H   0  0  0  0  0  0  0  0  0  0  0  0
   -4.1845  -29.7852  -34.2628 H   0  0  0  0  0  0  0  0  0  0  0  0
   -6.7490  -33.9247  -35.4547 H   0  0  0  0  0  0  0  0  0  0  0  0
  -12.4817  -27.6913  -37.6584 H   0  0  0  0  0  0  0  0  0  0  0  0
  -16.2238  -22.9087  -40.0918 H   0  0  0  0  0  0  0  0  0  0  0  0
  -10.7786  -28.9646  -36.4114 H   0  0  0  0  0  0  0  0  0  0  0  0
  -18.6087  -22.5459  -40.5511 H   0  0  0  0  0  0  0  0  0  0  0  0
  -11.6871  -24.2319  -35.2199 H   0  0  0  0  0  0  0  0  0  0  0  0
  -17.2250  -25.2911  -36.6523 H   0  0  0  0  0  0  0  0  0  0  0  0
  -10.3063  -25.4606  -32.7174 H   0  0  0  0  0  0  0  0  0  0  0  0
   -8.7660  -25.7360  -33.5677 H   0  0  0  0  0  0  0  0  0  0  0  0
   -9.6673  -24.2487  -33.8553 H   0  0  0  0  0  0  0  0  0  0  0  0
  -10.2258  -29.7315  -35.1828 H   0  0  0  0  0  0  0  0  0  0  0  0
  -10.0208  -29.6992  -33.4239 H   0  0  0  0  0  0  0  0  0  0  0  0
   -8.9427  -32.0791  -35.0498 H   0  0  0  0  0  0  0  0  0  0  0  0
  -12.7951  -24.4105  -37.8309 H   0  0  0  0  0  0  0  0  0  0  0  0
  -14.5863  -23.6462  -38.5131 H   0  0  0  0  0  0  0  0  0  0  0  0
  1  2  2  0  0  0  0
  1  3  1  0  0  0  0
  2  4  1  0  0  0  0
  3 12  2  0  0  0  0
  4 13  2  0  0  0  0
  5  7  2  0  0  0  0
  5 14  1  0  0  0  0
  6  8  1  0  0  0  0
  6 15  2  0  0  0  0
  7 16  1  0  0  0  0
  8 17  2  0  0  0  0
  9 11  1  0  0  0  0
  9 14  2  0  0  0  0
 10 15  1  0  0  0  0
 10 18  2  0  0  0  0
 11 16  2  0  0  0  0
 11 21  1  0  0  0  0
 12 13  1  0  0  0  0
 12 23  1  0  0  0  0
 13 24  1  0  0  0  0
 14 25  1  0  0  0  0
 15 26  1  0  0  0  0
 16 27  1  0  0  0  0
 17 18  1  0  0  0  0
 17 29  1  0  0  0  0
 18 30  1  0  0  0  0
 19 22  1  0  0  0  0
 19 23  2  0  0  0  0
 19 24  1  0  0  0  0
 20 25  1  0  0  0  0
 20 26  1  0  0  0  0
 20 28  2  0  0  0  0
 22 27  1  0  0  0  0
  1 31  1  0  0  0  0
  2 32  1  0  0  0  0
  3 33  1  0  0  0  0
  4 34  1  0  0  0  0
  5 35  1  0  0  0  0
  6 36  1  0  0  0  0
  7 37  1  0  0  0  0
  8 38  1  0  0  0  0
  9 39  1  0  0  0  0
 10 40  1  0  0  0  0
 21 41  1  0  0  0  0
 21 42  1  0  0  0  0
 21 43  1  0  0  0  0
 22 44  1  0  0  0  0
 22 45  1  0  0  0  0
 24 46  1  0  0  0  0
 25 47  1  0  0  0  0
 26 48  1  0  0  0  0
M  END
> <Clean Energy>
84.5744

> <SourceTag>
Livi_174a

> <Activity_FLAP>
100

> <Activity_sEH>
0.7

> <Gold.Version>
5.2

> <Gold.Id.Protein>
6HGV|6HGV_protein|mol2

> <Gold.PLP.Fitness>
89.1631

> <Gold.PLP.PLP>
-87.3691

> <Gold.PLP.part.hbond>
-6.6151

> <Gold.PLP.part.metal>
0.0000

> <Gold.PLP.part.buried>
14.7310

> <Gold.PLP.part.nonpolar>
-94.8101

> <Gold.PLP.part.repulsive>
0.0309

> <Gold.PLP.ligand.clash>
0.0000

> <Gold.PLP.ligand.torsion>
1.6065

> <Gold.PLP.Chemscore.Hbond>
0.8334

> <Gold.PLP.Chemscore.CHOScore>
0.0000

> <Gold.PLP.Chemscore.Metal>
0.0000

> <Gold.Chemscore.Hbonds>
donor molecule, donor type, donor heavy atom, donor atom, acceptor molecule, acceptor atom, score
      L1  H    25    47       P1  1931  0.58
      P1  H  1247  3847       L1    28  0.25

> <Gold.PLP.Chemscore.Internal.Correction>
0.6168

> <Gold.Protein.RotatedTorsions>
[ 3525  925  924  922 ] final   63.71 input   59.99 | X-H torsion
[ 3781 1176 1175 1172 ] final  -41.24 input   60.00 | X-H torsion
[ 4531 1957 1955 1953 ] final  -58.56 input   60.00 | X-H torsion
[ 3847 1247 1246 1244 ] final  -63.29 input   60.00 | X-H torsion
[ 4507 1931 1930 1928 ] final -124.07 input   60.00 | X-H torsion
[ 3677 1070 1069 1066 ] final    5.26 input   60.00 | X-H torsion

> <Gold.Protein.ActiveResidues>
 GLY266  PHE267  PRO268  GLU269  MET310  HIS334  ASP335  TRP336  GLY337  GLY338 
 MET339  LEU340  TRP342  TYR343  LEU358  ASN359  THR360  PRO361  ILE363  ALA365 
 MET369  SER370  PRO371  LEU372  GLU373  SER374  ILE375  LYS376  ALA377  ASN378 
 VAL380  PHE381  ASP382  TYR383  GLN384  PHE387  GLN388  LEU397  SER407  LEU408 
 PHE409  ARG410  LEU417  MET419  LEU428  PHE429  PHE459  TRP465  TYR466  ASN468 
 MET469  GLU470  ASN472  TRP473  ALA476  ASP496  PHE497  VAL498  LEU499  MET503 
 HIS524  TRP525 

> <Gold.Protein.RotatedAtoms>
   -2.7502  -29.8799  -30.8599 H   0  0  0  0  0  0  0  0  0  0  0  0  # atno 3525 bound_to 925 
  -12.8116  -23.1833  -30.5624 H   0  0  0  0  0  0  0  0  0  0  0  0  # atno 3677 bound_to 1070
  -10.4691  -36.8571  -34.0950 H   0  0  0  0  0  0  0  0  0  0  0  0  # atno 3781 bound_to 1176
  -16.0555  -27.8211  -37.2623 H   0  0  0  0  0  0  0  0  0  0  0  0  # atno 3847 bound_to 1247
  -13.4543  -24.4345  -40.4753 H   0  0  0  0  0  0  0  0  0  0  0  0  # atno 4507 bound_to 1931
   -2.0021  -32.2121  -36.8466 H   0  0  0  0  0  0  0  0  0  0  0  0  # atno 4531 bound_to 1957
   -3.7322  -29.5696  -29.5999 LP  0  0  0  0  0  0  0  0  0  0  0  0  # atno 5201 bound_to 925 
   -2.2617  -30.2337  -29.3485 LP  0  0  0  0  0  0  0  0  0  0  0  0  # atno 5202 bound_to 925 
   -9.2389  -36.3923  -33.1365 LP  0  0  0  0  0  0  0  0  0  0  0  0  # atno 5205 bound_to 1176
  -10.3997  -37.3839  -32.5569 LP  0  0  0  0  0  0  0  0  0  0  0  0  # atno 5206 bound_to 1176
   -1.4807  -33.7487  -36.9698 LP  0  0  0  0  0  0  0  0  0  0  0  0  # atno 5213 bound_to 1957
   -3.0549  -33.4396  -36.6652 LP  0  0  0  0  0  0  0  0  0  0  0  0  # atno 5214 bound_to 1957
  -14.6243  -27.4735  -37.9543 LP  0  0  0  0  0  0  0  0  0  0  0  0  # atno 5227 bound_to 1247
  -14.8784  -28.9443  -37.2919 LP  0  0  0  0  0  0  0  0  0  0  0  0  # atno 5228 bound_to 1247
  -12.4351  -23.9637  -39.2973 LP  0  0  0  0  0  0  0  0  0  0  0  0  # atno 5245 bound_to 1931
  -13.3026  -25.3370  -39.1297 LP  0  0  0  0  0  0  0  0  0  0  0  0  # atno 5246 bound_to 1931
  -11.5280  -23.6360  -31.4543 LP  0  0  0  0  0  0  0  0  0  0  0  0  # atno 5265 bound_to 1070
  -11.5084  -22.2130  -30.6536 LP  0  0  0  0  0  0  0  0  0  0  0  0  # atno 5266 bound_to 1070

$$$$
MSC-067|Lisa_paper2_min|sdf|13|dock1
  -GOLD-  10202014473D 1   1.00000     0.00000

 48 51  0  0  0  0  0  0  0  0  1 V2000
  -11.1982  -34.3532  -34.9652 C   0  0  0  0  0  0  0  0  0  0  0  0
  -11.3680  -34.8210  -33.6601 C   0  0  0  0  0  0  0  0  0  0  0  0
  -11.0865  -32.9827  -35.2316 C   0  0  0  0  0  0  0  0  0  0  0  0
  -11.4322  -33.9396  -32.5757 C   0  0  0  0  0  0  0  0  0  0  0  0
  -13.2521  -27.5780  -35.5887 C   0  0  0  0  0  0  0  0  0  0  0  0
  -17.0797  -23.5954  -39.6904 C   0  0  0  0  0  0  0  0  0  0  0  0
  -12.4381  -28.1755  -34.6264 C   0  0  0  0  0  0  0  0  0  0  0  0
  -18.3691  -23.2179  -40.0655 C   0  0  0  0  0  0  0  0  0  0  0  0
  -11.7734  -25.6686  -35.6540 C   0  0  0  0  0  0  0  0  0  0  0  0
  -17.9962  -24.9911  -37.9443 C   0  0  0  0  0  0  0  0  0  0  0  0
  -10.9593  -26.2660  -34.6918 C   0  0  0  0  0  0  0  0  0  0  0  0
  -11.1491  -32.0829  -34.1541 C   0  0  0  0  0  0  0  0  0  0  0  0
  -11.3188  -32.5794  -32.8647 C   0  0  0  0  0  0  0  0  0  0  0  0
  -12.9197  -26.3245  -36.1025 C   0  0  0  0  0  0  0  0  0  0  0  0
  -16.8933  -24.4820  -38.6298 C   0  0  0  0  0  0  0  0  0  0  0  0
  -11.2917  -27.5196  -34.1779 C   0  0  0  0  0  0  0  0  0  0  0  0
  -19.4719  -23.7271  -39.3800 C   0  0  0  0  0  0  0  0  0  0  0  0
  -19.2855  -24.6136  -38.3193 C   0  0  0  0  0  0  0  0  0  0  0  0
  -11.1839  -30.3710  -32.8783 C   0  0  0  0  0  0  0  0  0  0  0  0
  -15.1158  -25.4978  -37.1113 C   0  0  0  0  0  0  0  0  0  0  0  0
   -9.7359  -25.5497  -34.2231 C   0  0  0  0  0  0  0  0  0  0  0  0
  -11.1604  -29.0043  -32.3247 C   0  0  0  0  0  0  0  0  0  0  0  0
  -11.0672  -30.7094  -34.1428 N   0  0  0  0  0  0  0  0  0  0  0  0
  -11.3374  -31.4624  -32.0693 N   0  0  0  0  0  0  0  0  0  0  0  0
  -13.7341  -25.7273  -37.0651 N   0  0  0  0  0  0  0  0  0  0  0  0
  -15.5828  -24.8657  -38.2495 N   0  0  0  0  0  0  0  0  0  0  0  0
  -10.5048  -28.1198  -33.2341 O   0  0  0  0  0  0  0  0  0  0  0  0
  -16.0104  -25.8833  -35.7360 S   0  0  0  0  0  0  0  0  0  0  0  0
  -21.0434  -23.2189  -39.8904 Cl  0  0  0  0  0  0  0  0  0  0  0  0
  -20.6119  -25.2765  -37.4302 Cl  0  0  0  0  0  0  0  0  0  0  0  0
  -11.1515  -35.0631  -35.7872 H   0  0  0  0  0  0  0  0  0  0  0  0
  -11.4533  -35.8904  -33.4829 H   0  0  0  0  0  0  0  0  0  0  0  0
  -10.9538  -32.6299  -36.2493 H   0  0  0  0  0  0  0  0  0  0  0  0
  -11.5629  -34.3009  -31.5621 H   0  0  0  0  0  0  0  0  0  0  0  0
  -14.1431  -28.0985  -35.9308 H   0  0  0  0  0  0  0  0  0  0  0  0
  -16.2271  -23.1941  -40.2323 H   0  0  0  0  0  0  0  0  0  0  0  0
  -12.7027  -29.1522  -34.2304 H   0  0  0  0  0  0  0  0  0  0  0  0
  -18.4956  -22.5272  -40.8955 H   0  0  0  0  0  0  0  0  0  0  0  0
  -11.5128  -24.6910  -36.0538 H   0  0  0  0  0  0  0  0  0  0  0  0
  -17.8443  -25.6813  -37.1168 H   0  0  0  0  0  0  0  0  0  0  0  0
   -9.9731  -24.9168  -33.3599 H   0  0  0  0  0  0  0  0  0  0  0  0
   -8.9492  -26.2568  -33.9322 H   0  0  0  0  0  0  0  0  0  0  0  0
   -9.3186  -24.9168  -35.0163 H   0  0  0  0  0  0  0  0  0  0  0  0
  -12.1763  -28.6106  -32.1416 H   0  0  0  0  0  0  0  0  0  0  0  0
  -10.6260  -28.9585  -31.3591 H   0  0  0  0  0  0  0  0  0  0  0  0
  -11.4449  -31.4513  -31.0635 H   0  0  0  0  0  0  0  0  0  0  0  0
  -13.2450  -25.3539  -37.8877 H   0  0  0  0  0  0  0  0  0  0  0  0
  -14.8575  -24.5341  -38.8805 H   0  0  0  0  0  0  0  0  0  0  0  0
  1  2  2  0  0  0  0
  1  3  1  0  0  0  0
  2  4  1  0  0  0  0
  3 12  2  0  0  0  0
  4 13  2  0  0  0  0
  5  7  2  0  0  0  0
  5 14  1  0  0  0  0
  6  8  1  0  0  0  0
  6 15  2  0  0  0  0
  7 16  1  0  0  0  0
  8 17  2  0  0  0  0
  9 11  1  0  0  0  0
  9 14  2  0  0  0  0
 10 15  1  0  0  0  0
 10 18  2  0  0  0  0
 11 16  2  0  0  0  0
 11 21  1  0  0  0  0
 12 13  1  0  0  0  0
 12 23  1  0  0  0  0
 13 24  1  0  0  0  0
 14 25  1  0  0  0  0
 15 26  1  0  0  0  0
 16 27  1  0  0  0  0
 17 18  1  0  0  0  0
 17 29  1  0  0  0  0
 18 30  1  0  0  0  0
 19 22  1  0  0  0  0
 19 23  2  0  0  0  0
 19 24  1  0  0  0  0
 20 25  1  0  0  0  0
 20 26  1  0  0  0  0
 20 28  2  0  0  0  0
 22 27  1  0  0  0  0
  1 31  1  0  0  0  0
  2 32  1  0  0  0  0
  3 33  1  0  0  0  0
  4 34  1  0  0  0  0
  5 35  1  0  0  0  0
  6 36  1  0  0  0  0
  7 37  1  0  0  0  0
  8 38  1  0  0  0  0
  9 39  1  0  0  0  0
 10 40  1  0  0  0  0
 21 41  1  0  0  0  0
 21 42  1  0  0  0  0
 21 43  1  0  0  0  0
 22 44  1  0  0  0  0
 22 45  1  0  0  0  0
 24 46  1  0  0  0  0
 25 47  1  0  0  0  0
 26 48  1  0  0  0  0
M  END
> <Clean Energy>
84.5744

> <SourceTag>
Livi_174a

> <Activity_FLAP>
100

> <Activity_sEH>
0.7

> <Gold.Version>
5.2

> <Gold.Id.Protein>
6HGV|6HGV_protein|mol2

> <Gold.PLP.Fitness>
88.9335

> <Gold.PLP.PLP>
-86.0950

> <Gold.PLP.part.hbond>
-6.7856

> <Gold.PLP.part.metal>
0.0000

> <Gold.PLP.part.buried>
8.2045

> <Gold.PLP.part.nonpolar>
-88.1252

> <Gold.PLP.part.repulsive>
0.0404

> <Gold.PLP.ligand.clash>
0.0000

> <Gold.PLP.ligand.torsion>
1.3556

> <Gold.PLP.Chemscore.Hbond>
1.0446

> <Gold.PLP.Chemscore.CHOScore>
0.0000

> <Gold.PLP.Chemscore.Metal>
0.0000

> <Gold.Chemscore.Hbonds>
donor molecule, donor type, donor heavy atom, donor atom, acceptor molecule, acceptor atom, score
      L1  H    25    47       P1  1931  0.87
      L1  H    26    48       P1  1931  0.08
      P1  H  1256  3854       L1    23  0.10

> <Gold.PLP.Chemscore.Internal.Correction>
0.7050

> <Gold.Protein.RotatedTorsions>
[ 3525  925  924  922 ] final  -50.54 input   59.99 | X-H torsion
[ 3781 1176 1175 1172 ] final  164.27 input   60.00 | X-H torsion
[ 4531 1957 1955 1953 ] final  -15.86 input   60.00 | X-H torsion
[ 3847 1247 1246 1244 ] final    1.82 input   60.00 | X-H torsion
[ 4507 1931 1930 1928 ] final  167.39 input   60.00 | X-H torsion
[ 3677 1070 1069 1066 ] final  107.52 input   60.00 | X-H torsion

> <Gold.Protein.ActiveResidues>
 GLY266  PHE267  PRO268  GLU269  MET310  HIS334  ASP335  TRP336  GLY337  GLY338 
 MET339  LEU340  TRP342  TYR343  LEU358  ASN359  THR360  PRO361  ILE363  ALA365 
 MET369  SER370  PRO371  LEU372  GLU373  SER374  ILE375  LYS376  ALA377  ASN378 
 VAL380  PHE381  ASP382  TYR383  GLN384  PHE387  GLN388  LEU397  SER407  LEU408 
 PHE409  ARG410  LEU417  MET419  LEU428  PHE429  PHE459  TRP465  TYR466  ASN468 
 MET469  GLU470  ASN472  TRP473  ALA476  ASP496  PHE497  VAL498  LEU499  MET503 
 HIS524  TRP525 

> <Gold.Protein.RotatedAtoms>
   -3.7496  -29.5512  -29.6911 H   0  0  0  0  0  0  0  0  0  0  0  0  # atno 3525 bound_to 925 
  -11.7570  -22.1782  -30.5086 H   0  0  0  0  0  0  0  0  0  0  0  0  # atno 3677 bound_to 1070
   -9.3586  -36.6539  -32.6595 H   0  0  0  0  0  0  0  0  0  0  0  0  # atno 3781 bound_to 1176
  -15.6857  -28.7357  -37.0576 H   0  0  0  0  0  0  0  0  0  0  0  0  # atno 3847 bound_to 1247
  -12.7439  -23.7933  -40.0330 H   0  0  0  0  0  0  0  0  0  0  0  0  # atno 4507 bound_to 1931
   -2.6612  -32.3356  -36.7234 H   0  0  0  0  0  0  0  0  0  0  0  0  # atno 4531 bound_to 1957
   -2.3218  -30.2139  -29.2782 LP  0  0  0  0  0  0  0  0  0  0  0  0  # atno 5201 bound_to 925 
   -2.6657  -29.9205  -30.8473 LP  0  0  0  0  0  0  0  0  0  0  0  0  # atno 5202 bound_to 925 
  -10.7396  -37.4460  -32.9963 LP  0  0  0  0  0  0  0  0  0  0  0  0  # atno 5205 bound_to 1176
  -10.0172  -36.5347  -34.1428 LP  0  0  0  0  0  0  0  0  0  0  0  0  # atno 5206 bound_to 1176
   -1.2528  -33.1019  -37.0020 LP  0  0  0  0  0  0  0  0  0  0  0  0  # atno 5213 bound_to 1957
   -2.6191  -33.9621  -36.7571 LP  0  0  0  0  0  0  0  0  0  0  0  0  # atno 5214 bound_to 1957
  -15.5699  -27.2344  -37.6746 LP  0  0  0  0  0  0  0  0  0  0  0  0  # atno 5227 bound_to 1247
  -14.3053  -28.2624  -37.7777 LP  0  0  0  0  0  0  0  0  0  0  0  0  # atno 5228 bound_to 1247
  -12.7509  -24.8391  -38.7863 LP  0  0  0  0  0  0  0  0  0  0  0  0  # atno 5245 bound_to 1931
  -13.7023  -25.1073  -40.0861 LP  0  0  0  0  0  0  0  0  0  0  0  0  # atno 5246 bound_to 1931
  -12.7808  -23.4255  -30.7185 LP  0  0  0  0  0  0  0  0  0  0  0  0  # atno 5265 bound_to 1070
  -11.3176  -23.4356  -31.4436 LP  0  0  0  0  0  0  0  0  0  0  0  0  # atno 5266 bound_to 1070

$$$$
MSC-067|Lisa_paper2_min|sdf|13|dock7
  -GOLD-  10202014483D 1   1.00000     0.00000

 48 51  0  0  0  0  0  0  0  0  1 V2000
  -11.1382  -34.2349  -35.2071 C   0  0  0  0  0  0  0  0  0  0  0  0
  -11.4003  -34.7584  -33.9389 C   0  0  0  0  0  0  0  0  0  0  0  0
  -10.9682  -32.8578  -35.3981 C   0  0  0  0  0  0  0  0  0  0  0  0
  -11.5017  -33.9282  -32.8177 C   0  0  0  0  0  0  0  0  0  0  0  0
  -13.1992  -27.5993  -35.5542 C   0  0  0  0  0  0  0  0  0  0  0  0
  -17.0733  -23.6586  -39.6595 C   0  0  0  0  0  0  0  0  0  0  0  0
  -12.3793  -28.1829  -34.5886 C   0  0  0  0  0  0  0  0  0  0  0  0
  -18.3655  -23.2893  -40.0333 C   0  0  0  0  0  0  0  0  0  0  0  0
  -11.7605  -25.6591  -35.6032 C   0  0  0  0  0  0  0  0  0  0  0  0
  -17.9785  -25.0447  -37.8999 C   0  0  0  0  0  0  0  0  0  0  0  0
  -10.9404  -26.2427  -34.6375 C   0  0  0  0  0  0  0  0  0  0  0  0
  -11.0670  -32.0089  -34.2826 C   0  0  0  0  0  0  0  0  0  0  0  0
  -11.3289  -32.5604  -33.0315 C   0  0  0  0  0  0  0  0  0  0  0  0
  -12.8898  -26.3373  -36.0615 C   0  0  0  0  0  0  0  0  0  0  0  0
  -16.8799  -24.5363  -38.5928 C   0  0  0  0  0  0  0  0  0  0  0  0
  -11.2498  -27.5047  -34.1302 C   0  0  0  0  0  0  0  0  0  0  0  0
  -19.4640  -23.7978  -39.3404 C   0  0  0  0  0  0  0  0  0  0  0  0
  -19.2706  -24.6755  -38.2736 C   0  0  0  0  0  0  0  0  0  0  0  0
  -11.1247  -30.3598  -32.9275 C   0  0  0  0  0  0  0  0  0  0  0  0
  -15.0928  -25.5289  -37.0703 C   0  0  0  0  0  0  0  0  0  0  0  0
   -9.7355  -25.5026  -34.1583 C   0  0  0  0  0  0  0  0  0  0  0  0
  -11.0918  -29.0226  -32.3062 C   0  0  0  0  0  0  0  0  0  0  0  0
  -10.9432  -30.6411  -34.1983 N   0  0  0  0  0  0  0  0  0  0  0  0
  -11.3603  -31.4827  -32.1841 N   0  0  0  0  0  0  0  0  0  0  0  0
  -13.7102  -25.7538  -37.0274 N   0  0  0  0  0  0  0  0  0  0  0  0
  -15.5666  -24.9117  -38.2138 N   0  0  0  0  0  0  0  0  0  0  0  0
  -10.4567  -28.0917  -33.1832 O   0  0  0  0  0  0  0  0  0  0  0  0
  -15.9801  -25.9007  -35.6865 S   0  0  0  0  0  0  0  0  0  0  0  0
  -21.0392  -23.3000  -39.8496 Cl  0  0  0  0  0  0  0  0  0  0  0  0
  -20.5913  -25.3371  -37.3753 Cl  0  0  0  0  0  0  0  0  0  0  0  0
  -11.0645  -34.9059  -36.0592 H   0  0  0  0  0  0  0  0  0  0  0  0
  -11.5292  -35.8315  -33.8204 H   0  0  0  0  0  0  0  0  0  0  0  0
  -10.7639  -32.4615  -36.3875 H   0  0  0  0  0  0  0  0  0  0  0  0
  -11.7040  -34.3329  -31.8326 H   0  0  0  0  0  0  0  0  0  0  0  0
  -14.0768  -28.1371  -35.9040 H   0  0  0  0  0  0  0  0  0  0  0  0
  -16.2242  -23.2578  -40.2071 H   0  0  0  0  0  0  0  0  0  0  0  0
  -12.6259  -29.1664  -34.1976 H   0  0  0  0  0  0  0  0  0  0  0  0
  -18.4975  -22.6054  -40.8681 H   0  0  0  0  0  0  0  0  0  0  0  0
  -11.5178  -24.6748  -35.9979 H   0  0  0  0  0  0  0  0  0  0  0  0
  -17.8211  -25.7281  -37.0677 H   0  0  0  0  0  0  0  0  0  0  0  0
   -9.9916  -24.8778  -33.2946 H   0  0  0  0  0  0  0  0  0  0  0  0
   -8.9360  -26.1940  -33.8646 H   0  0  0  0  0  0  0  0  0  0  0  0
   -9.3262  -24.8582  -34.9465 H   0  0  0  0  0  0  0  0  0  0  0  0
  -12.1042  -28.6413  -32.0823 H   0  0  0  0  0  0  0  0  0  0  0  0
  -10.5374  -29.0242  -31.3508 H   0  0  0  0  0  0  0  0  0  0  0  0
  -11.5273  -31.5161  -31.1869 H   0  0  0  0  0  0  0  0  0  0  0  0
  -13.2258  -25.3888  -37.8565 H   0  0  0  0  0  0  0  0  0  0  0  0
  -14.8450  -24.5855  -38.8519 H   0  0  0  0  0  0  0  0  0  0  0  0
  1  2  2  0  0  0  0
  1  3  1  0  0  0  0
  2  4  1  0  0  0  0
  3 12  2  0  0  0  0
  4 13  2  0  0  0  0
  5  7  2  0  0  0  0
  5 14  1  0  0  0  0
  6  8  1  0  0  0  0
  6 15  2  0  0  0  0
  7 16  1  0  0  0  0
  8 17  2  0  0  0  0
  9 11  1  0  0  0  0
  9 14  2  0  0  0  0
 10 15  1  0  0  0  0
 10 18  2  0  0  0  0
 11 16  2  0  0  0  0
 11 21  1  0  0  0  0
 12 13  1  0  0  0  0
 12 23  1  0  0  0  0
 13 24  1  0  0  0  0
 14 25  1  0  0  0  0
 15 26  1  0  0  0  0
 16 27  1  0  0  0  0
 17 18  1  0  0  0  0
 17 29  1  0  0  0  0
 18 30  1  0  0  0  0
 19 22  1  0  0  0  0
 19 23  2  0  0  0  0
 19 24  1  0  0  0  0
 20 25  1  0  0  0  0
 20 26  1  0  0  0  0
 20 28  2  0  0  0  0
 22 27  1  0  0  0  0
  1 31  1  0  0  0  0
  2 32  1  0  0  0  0
  3 33  1  0  0  0  0
  4 34  1  0  0  0  0
  5 35  1  0  0  0  0
  6 36  1  0  0  0  0
  7 37  1  0  0  0  0
  8 38  1  0  0  0  0
  9 39  1  0  0  0  0
 10 40  1  0  0  0  0
 21 41  1  0  0  0  0
 21 42  1  0  0  0  0
 21 43  1  0  0  0  0
 22 44  1  0  0  0  0
 22 45  1  0  0  0  0
 24 46  1  0  0  0  0
 25 47  1  0  0  0  0
 26 48  1  0  0  0  0
M  END
> <Clean Energy>
84.5744

> <SourceTag>
Livi_174a

> <Activity_FLAP>
100

> <Activity_sEH>
0.7

> <Gold.Version>
5.2

> <Gold.Id.Protein>
6HGV|6HGV_protein|mol2

> <Gold.PLP.Fitness>
88.6935

> <Gold.PLP.PLP>
-85.9620

> <Gold.PLP.part.hbond>
-7.0654

> <Gold.PLP.part.metal>
0.0000

> <Gold.PLP.part.buried>
7.7265

> <Gold.PLP.part.nonpolar>
-87.1049

> <Gold.PLP.part.repulsive>
0.0425

> <Gold.PLP.ligand.clash>
0.0000

> <Gold.PLP.ligand.torsion>
1.2450

> <Gold.PLP.Chemscore.Hbond>
1.0059

> <Gold.PLP.Chemscore.CHOScore>
0.0000

> <Gold.PLP.Chemscore.Metal>
0.0000

> <Gold.Chemscore.Hbonds>
donor molecule, donor type, donor heavy atom, donor atom, acceptor molecule, acceptor atom, score
      L1  H    25    47       P1  1931  0.83
      L1  H    26    48       P1  1931  0.12
      P1  H  1256  3854       L1    23  0.06

> <Gold.PLP.Chemscore.Internal.Correction>
0.6168

> <Gold.Protein.RotatedTorsions>
[ 3525  925  924  922 ] final  160.82 input   59.99 | X-H torsion
[ 3781 1176 1175 1172 ] final  136.15 input   60.00 | X-H torsion
[ 4531 1957 1955 1953 ] final   57.37 input   60.00 | X-H torsion
[ 3847 1247 1246 1244 ] final  -58.46 input   60.00 | X-H torsion
[ 4507 1931 1930 1928 ] final  163.22 input   60.00 | X-H torsion
[ 3677 1070 1069 1066 ] final -121.13 input   60.00 | X-H torsion

> <Gold.Protein.ActiveResidues>
 GLY266  PHE267  PRO268  GLU269  MET310  HIS334  ASP335  TRP336  GLY337  GLY338 
 MET339  LEU340  TRP342  TYR343  LEU358  ASN359  THR360  PRO361  ILE363  ALA365 
 MET369  SER370  PRO371  LEU372  GLU373  SER374  ILE375  LYS376  ALA377  ASN378 
 VAL380  PHE381  ASP382  TYR383  GLN384  PHE387  GLN388  LEU397  SER407  LEU408 
 PHE409  ARG410  LEU417  MET419  LEU428  PHE429  PHE459  TRP465  TYR466  ASN468 
 MET469  GLU470  ASN472  TRP473  ALA476  ASP496  PHE497  VAL498  LEU499  MET503 
 HIS524  TRP525 

> <Gold.Protein.RotatedAtoms>
   -2.0974  -30.2724  -29.6810 H   0  0  0  0  0  0  0  0  0  0  0  0  # atno 3525 bound_to 925 
  -11.4490  -23.5669  -31.4509 H   0  0  0  0  0  0  0  0  0  0  0  0  # atno 3677 bound_to 1070
   -9.6338  -36.9267  -32.4212 H   0  0  0  0  0  0  0  0  0  0  0  0  # atno 3781 bound_to 1176
  -16.0647  -27.8931  -37.2312 H   0  0  0  0  0  0  0  0  0  0  0  0  # atno 3847 bound_to 1247
  -12.7051  -23.7842  -39.9778 H   0  0  0  0  0  0  0  0  0  0  0  0  # atno 4507 bound_to 1931
   -3.0682  -33.3741  -36.6640 H   0  0  0  0  0  0  0  0  0  0  0  0  # atno 4531 bound_to 1957
   -3.0932  -29.7338  -30.8499 LP  0  0  0  0  0  0  0  0  0  0  0  0  # atno 5201 bound_to 925 
   -3.5582  -29.6742  -29.2857 LP  0  0  0  0  0  0  0  0  0  0  0  0  # atno 5202 bound_to 925 
  -10.8369  -37.3474  -33.4330 LP  0  0  0  0  0  0  0  0  0  0  0  0  # atno 5205 bound_to 1176
   -9.6429  -36.3586  -33.9461 LP  0  0  0  0  0  0  0  0  0  0  0  0  # atno 5206 bound_to 1176
   -1.9365  -32.2207  -36.8568 LP  0  0  0  0  0  0  0  0  0  0  0  0  # atno 5213 bound_to 1957
   -1.5255  -33.7976  -36.9621 LP  0  0  0  0  0  0  0  0  0  0  0  0  # atno 5214 bound_to 1957
  -14.6838  -27.4209  -37.9511 LP  0  0  0  0  0  0  0  0  0  0  0  0  # atno 5227 bound_to 1247
  -14.8097  -28.9245  -37.3265 LP  0  0  0  0  0  0  0  0  0  0  0  0  # atno 5228 bound_to 1247
  -12.7920  -24.8939  -38.7907 LP  0  0  0  0  0  0  0  0  0  0  0  0  # atno 5245 bound_to 1931
  -13.7003  -25.0617  -40.1373 LP  0  0  0  0  0  0  0  0  0  0  0  0  # atno 5246 bound_to 1931
  -11.5941  -22.1889  -30.5977 LP  0  0  0  0  0  0  0  0  0  0  0  0  # atno 5265 bound_to 1070
  -12.8145  -23.2738  -30.6156 LP  0  0  0  0  0  0  0  0  0  0  0  0  # atno 5266 bound_to 1070

$$$$
MSC-067|Lisa_paper2_min|sdf|13|dock10
  -GOLD-  10202014483D 1   1.00000     0.00000

 48 51  0  0  0  0  0  0  0  0  1 V2000
   -3.4772  -31.0539  -33.8112 C   0  0  0  0  0  0  0  0  0  0  0  0
   -3.9010  -32.2466  -34.4017 C   0  0  0  0  0  0  0  0  0  0  0  0
   -4.3570  -29.9761  -33.6502 C   0  0  0  0  0  0  0  0  0  0  0  0
   -5.2157  -32.4066  -34.8518 C   0  0  0  0  0  0  0  0  0  0  0  0
  -11.4615  -26.9090  -37.1702 C   0  0  0  0  0  0  0  0  0  0  0  0
  -16.7751  -23.1955  -39.5016 C   0  0  0  0  0  0  0  0  0  0  0  0
  -10.4983  -27.6381  -36.4731 C   0  0  0  0  0  0  0  0  0  0  0  0
  -18.1286  -23.0073  -39.7815 C   0  0  0  0  0  0  0  0  0  0  0  0
  -11.6014  -25.3411  -35.3374 C   0  0  0  0  0  0  0  0  0  0  0  0
  -17.3571  -24.6675  -37.6764 C   0  0  0  0  0  0  0  0  0  0  0  0
  -10.6382  -26.0702  -34.6401 C   0  0  0  0  0  0  0  0  0  0  0  0
   -5.6815  -30.1193  -34.0971 C   0  0  0  0  0  0  0  0  0  0  0  0
   -6.0743  -31.3202  -34.6814 C   0  0  0  0  0  0  0  0  0  0  0  0
  -12.0131  -25.7604  -36.6024 C   0  0  0  0  0  0  0  0  0  0  0  0
  -16.3894  -24.0256  -38.4490 C   0  0  0  0  0  0  0  0  0  0  0  0
  -10.0866  -27.2188  -35.2080 C   0  0  0  0  0  0  0  0  0  0  0  0
  -19.0962  -23.6493  -39.0088 C   0  0  0  0  0  0  0  0  0  0  0  0
  -18.7105  -24.4794  -37.9562 C   0  0  0  0  0  0  0  0  0  0  0  0
   -7.7399  -29.8658  -34.6054 C   0  0  0  0  0  0  0  0  0  0  0  0
  -14.3738  -25.1275  -37.3443 C   0  0  0  0  0  0  0  0  0  0  0  0
  -10.2091  -25.6070  -33.2871 C   0  0  0  0  0  0  0  0  0  0  0  0
   -9.1061  -29.3477  -34.8053 C   0  0  0  0  0  0  0  0  0  0  0  0
   -6.7293  -29.2282  -34.0584 N   0  0  0  0  0  0  0  0  0  0  0  0
   -7.3952  -31.1296  -34.9967 N   0  0  0  0  0  0  0  0  0  0  0  0
  -12.9764  -25.0313  -37.3002 N   0  0  0  0  0  0  0  0  0  0  0  0
  -15.0138  -24.2169  -38.1655 N   0  0  0  0  0  0  0  0  0  0  0  0
   -9.1411  -27.9454  -34.5383 O   0  0  0  0  0  0  0  0  0  0  0  0
  -15.1067  -26.2287  -36.2999 S   0  0  0  0  0  0  0  0  0  0  0  0
  -20.7565  -23.3734  -39.4035 Cl  0  0  0  0  0  0  0  0  0  0  0  0
  -19.8624  -25.3002  -36.9620 Cl  0  0  0  0  0  0  0  0  0  0  0  0
   -2.4490  -30.9601  -33.4707 H   0  0  0  0  0  0  0  0  0  0  0  0
   -3.1958  -33.0665  -34.5151 H   0  0  0  0  0  0  0  0  0  0  0  0
   -4.0177  -29.0540  -33.1892 H   0  0  0  0  0  0  0  0  0  0  0  0
   -5.5466  -33.3319  -35.3094 H   0  0  0  0  0  0  0  0  0  0  0  0
  -11.7748  -27.2451  -38.1554 H   0  0  0  0  0  0  0  0  0  0  0  0
  -16.0290  -22.6917  -40.1109 H   0  0  0  0  0  0  0  0  0  0  0  0
  -10.0726  -28.5318  -36.9212 H   0  0  0  0  0  0  0  0  0  0  0  0
  -18.4109  -22.3581  -40.6065 H   0  0  0  0  0  0  0  0  0  0  0  0
  -12.0306  -24.4456  -34.8933 H   0  0  0  0  0  0  0  0  0  0  0  0
  -17.0500  -25.3129  -36.8557 H   0  0  0  0  0  0  0  0  0  0  0  0
  -10.8412  -26.0574  -32.5129 H   0  0  0  0  0  0  0  0  0  0  0  0
   -9.1651  -25.8784  -33.0874 H   0  0  0  0  0  0  0  0  0  0  0  0
  -10.2767  -24.5151  -33.2018 H   0  0  0  0  0  0  0  0  0  0  0  0
   -9.4654  -29.5054  -35.8381 H   0  0  0  0  0  0  0  0  0  0  0  0
   -9.8367  -29.8403  -34.1391 H   0  0  0  0  0  0  0  0  0  0  0  0
   -8.0037  -31.8059  -35.4391 H   0  0  0  0  0  0  0  0  0  0  0  0
  -12.6166  -24.2568  -37.8710 H   0  0  0  0  0  0  0  0  0  0  0  0
  -14.4086  -23.5021  -38.5618 H   0  0  0  0  0  0  0  0  0  0  0  0
  1  2  2  0  0  0  0
  1  3  1  0  0  0  0
  2  4  1  0  0  0  0
  3 12  2  0  0  0  0
  4 13  2  0  0  0  0
  5  7  2  0  0  0  0
  5 14  1  0  0  0  0
  6  8  1  0  0  0  0
  6 15  2  0  0  0  0
  7 16  1  0  0  0  0
  8 17  2  0  0  0  0
  9 11  1  0  0  0  0
  9 14  2  0  0  0  0
 10 15  1  0  0  0  0
 10 18  2  0  0  0  0
 11 16  2  0  0  0  0
 11 21  1  0  0  0  0
 12 13  1  0  0  0  0
 12 23  1  0  0  0  0
 13 24  1  0  0  0  0
 14 25  1  0  0  0  0
 15 26  1  0  0  0  0
 16 27  1  0  0  0  0
 17 18  1  0  0  0  0
 17 29  1  0  0  0  0
 18 30  1  0  0  0  0
 19 22  1  0  0  0  0
 19 23  2  0  0  0  0
 19 24  1  0  0  0  0
 20 25  1  0  0  0  0
 20 26  1  0  0  0  0
 20 28  2  0  0  0  0
 22 27  1  0  0  0  0
  1 31  1  0  0  0  0
  2 32  1  0  0  0  0
  3 33  1  0  0  0  0
  4 34  1  0  0  0  0
  5 35  1  0  0  0  0
  6 36  1  0  0  0  0
  7 37  1  0  0  0  0
  8 38  1  0  0  0  0
  9 39  1  0  0  0  0
 10 40  1  0  0  0  0
 21 41  1  0  0  0  0
 21 42  1  0  0  0  0
 21 43  1  0  0  0  0
 22 44  1  0  0  0  0
 22 45  1  0  0  0  0
 24 46  1  0  0  0  0
 25 47  1  0  0  0  0
 26 48  1  0  0  0  0
M  END
> <Clean Energy>
84.5744

> <SourceTag>
Livi_174a

> <Activity_FLAP>
100

> <Activity_sEH>
0.7

> <Gold.Version>
5.2

> <Gold.Id.Protein>
6HGV|6HGV_protein|mol2

> <Gold.PLP.Fitness>
88.6738

> <Gold.PLP.PLP>
-86.7359

> <Gold.PLP.part.hbond>
-6.7281

> <Gold.PLP.part.metal>
0.0000

> <Gold.PLP.part.buried>
10.6040

> <Gold.PLP.part.nonpolar>
-90.5693

> <Gold.PLP.part.repulsive>
0.0356

> <Gold.PLP.ligand.clash>
0.0000

> <Gold.PLP.ligand.torsion>
1.4275

> <Gold.PLP.Chemscore.Hbond>
0.8245

> <Gold.PLP.Chemscore.CHOScore>
0.0000

> <Gold.PLP.Chemscore.Metal>
0.0000

> <Gold.Chemscore.Hbonds>
donor molecule, donor type, donor heavy atom, donor atom, acceptor molecule, acceptor atom, score
      L1  H    25    47       P1  1931  0.46
      P1  H  1247  3847       L1    28  0.37

> <Gold.PLP.Chemscore.Internal.Correction>
0.6115

> <Gold.Protein.RotatedTorsions>
[ 3525  925  924  922 ] final  -85.59 input   59.99 | X-H torsion
[ 3781 1176 1175 1172 ] final  153.82 input   60.00 | X-H torsion
[ 4531 1957 1955 1953 ] final   35.37 input   60.00 | X-H torsion
[ 3847 1247 1246 1244 ] final  -70.92 input   60.00 | X-H torsion
[ 4507 1931 1930 1928 ] final -144.57 input   60.00 | X-H torsion
[ 3677 1070 1069 1066 ] final  -92.13 input   60.00 | X-H torsion

> <Gold.Protein.ActiveResidues>
 GLY266  PHE267  PRO268  GLU269  MET310  HIS334  ASP335  TRP336  GLY337  GLY338 
 MET339  LEU340  TRP342  TYR343  LEU358  ASN359  THR360  PRO361  ILE363  ALA365 
 MET369  SER370  PRO371  LEU372  GLU373  SER374  ILE375  LYS376  ALA377  ASN378 
 VAL380  PHE381  ASP382  TYR383  GLN384  PHE387  GLN388  LEU397  SER407  LEU408 
 PHE409  ARG410  LEU417  MET419  LEU428  PHE429  PHE459  TRP465  TYR466  ASN468 
 MET469  GLU470  ASN472  TRP473  ALA476  ASP496  PHE497  VAL498  LEU499  MET503 
 HIS524  TRP525 

> <Gold.Protein.RotatedAtoms>
   -3.4847  -29.7098  -29.2192 H   0  0  0  0  0  0  0  0  0  0  0  0  # atno 3525 bound_to 925 
  -11.8511  -23.7989  -31.3853 H   0  0  0  0  0  0  0  0  0  0  0  0  # atno 3677 bound_to 1070
   -9.4450  -36.7524  -32.5503 H   0  0  0  0  0  0  0  0  0  0  0  0  # atno 3781 bound_to 1176
  -16.0285  -27.7114  -37.3149 H   0  0  0  0  0  0  0  0  0  0  0  0  # atno 3847 bound_to 1247
  -13.2554  -24.1679  -40.4558 H   0  0  0  0  0  0  0  0  0  0  0  0  # atno 4507 bound_to 1931
   -3.0917  -33.0177  -36.6533 H   0  0  0  0  0  0  0  0  0  0  0  0  # atno 4531 bound_to 1957
   -2.0677  -30.2786  -29.7818 LP  0  0  0  0  0  0  0  0  0  0  0  0  # atno 5201 bound_to 925 
   -3.1865  -29.6960  -30.8189 LP  0  0  0  0  0  0  0  0  0  0  0  0  # atno 5202 bound_to 925 
  -10.7973  -37.4245  -33.1567 LP  0  0  0  0  0  0  0  0  0  0  0  0  # atno 5205 bound_to 1176
   -9.8726  -36.4571  -34.0924 LP  0  0  0  0  0  0  0  0  0  0  0  0  # atno 5206 bound_to 1176
   -1.6192  -32.3782  -36.9198 LP  0  0  0  0  0  0  0  0  0  0  0  0  # atno 5213 bound_to 1957
   -1.8191  -33.9989  -36.9098 LP  0  0  0  0  0  0  0  0  0  0  0  0  # atno 5214 bound_to 1957
  -14.5386  -27.5652  -37.9529 LP  0  0  0  0  0  0  0  0  0  0  0  0  # atno 5227 bound_to 1247
  -14.9914  -28.9631  -37.2404 LP  0  0  0  0  0  0  0  0  0  0  0  0  # atno 5228 bound_to 1247
  -12.4434  -24.1855  -39.0457 LP  0  0  0  0  0  0  0  0  0  0  0  0  # atno 5245 bound_to 1931
  -13.4945  -25.3837  -39.4009 LP  0  0  0  0  0  0  0  0  0  0  0  0  # atno 5246 bound_to 1931
  -11.2560  -22.3748  -30.8698 LP  0  0  0  0  0  0  0  0  0  0  0  0  # atno 5265 bound_to 1070
  -12.7476  -22.8543  -30.4095 LP  0  0  0  0  0  0  0  0  0  0  0  0  # atno 5266 bound_to 1070

$$$$
MSC-067|Lisa_paper2_min|sdf|13|dock5
  -GOLD-  10202014473D 1   1.00000     0.00000

 48 51  0  0  0  0  0  0  0  0  1 V2000
  -11.1397  -34.2932  -34.9531 C   0  0  0  0  0  0  0  0  0  0  0  0
  -11.3815  -34.7761  -33.6650 C   0  0  0  0  0  0  0  0  0  0  0  0
  -10.9890  -32.9216  -35.1930 C   0  0  0  0  0  0  0  0  0  0  0  0
  -11.4812  -33.9092  -32.5717 C   0  0  0  0  0  0  0  0  0  0  0  0
  -13.1830  -27.6512  -35.5622 C   0  0  0  0  0  0  0  0  0  0  0  0
  -17.0382  -23.7749  -39.7576 C   0  0  0  0  0  0  0  0  0  0  0  0
  -12.3707  -28.2170  -34.5796 C   0  0  0  0  0  0  0  0  0  0  0  0
  -18.3242  -23.3928  -40.1394 C   0  0  0  0  0  0  0  0  0  0  0  0
  -11.7885  -25.6784  -35.5789 C   0  0  0  0  0  0  0  0  0  0  0  0
  -17.9591  -25.0235  -37.9056 C   0  0  0  0  0  0  0  0  0  0  0  0
  -10.9762  -26.2442  -34.5963 C   0  0  0  0  0  0  0  0  0  0  0  0
  -11.0864  -32.0362  -34.1062 C   0  0  0  0  0  0  0  0  0  0  0  0
  -11.3278  -32.5475  -32.8342 C   0  0  0  0  0  0  0  0  0  0  0  0
  -12.8918  -26.3818  -36.0619 C   0  0  0  0  0  0  0  0  0  0  0  0
  -16.8557  -24.5903  -38.6406 C   0  0  0  0  0  0  0  0  0  0  0  0
  -11.2673  -27.5136  -34.0965 C   0  0  0  0  0  0  0  0  0  0  0  0
  -19.4276  -23.8261  -39.4044 C   0  0  0  0  0  0  0  0  0  0  0  0
  -19.2451  -24.6414  -38.2874 C   0  0  0  0  0  0  0  0  0  0  0  0
  -11.1500  -30.3423  -32.8077 C   0  0  0  0  0  0  0  0  0  0  0  0
  -15.0823  -25.5648  -37.0905 C   0  0  0  0  0  0  0  0  0  0  0  0
   -9.7991  -25.4772  -34.0907 C   0  0  0  0  0  0  0  0  0  0  0  0
  -11.1271  -28.9843  -32.2329 C   0  0  0  0  0  0  0  0  0  0  0  0
  -10.9787  -30.6649  -34.0701 N   0  0  0  0  0  0  0  0  0  0  0  0
  -11.3635  -31.4418  -32.0237 N   0  0  0  0  0  0  0  0  0  0  0  0
  -13.7045  -25.8162  -37.0449 N   0  0  0  0  0  0  0  0  0  0  0  0
  -15.5487  -24.9788  -38.2534 N   0  0  0  0  0  0  0  0  0  0  0  0
  -10.4815  -28.0833  -33.1331 O   0  0  0  0  0  0  0  0  0  0  0  0
  -15.9710  -25.8693  -35.6913 S   0  0  0  0  0  0  0  0  0  0  0  0
  -20.9947  -23.3161  -39.9262 Cl  0  0  0  0  0  0  0  0  0  0  0  0
  -20.5722  -25.2086  -37.3354 Cl  0  0  0  0  0  0  0  0  0  0  0  0
  -11.0669  -34.9921  -35.7827 H   0  0  0  0  0  0  0  0  0  0  0  0
  -11.4958  -35.8460  -33.5084 H   0  0  0  0  0  0  0  0  0  0  0  0
  -10.8003  -32.5570  -36.1976 H   0  0  0  0  0  0  0  0  0  0  0  0
  -11.6678  -34.2822  -31.5712 H   0  0  0  0  0  0  0  0  0  0  0  0
  -14.0402  -28.2086  -35.9312 H   0  0  0  0  0  0  0  0  0  0  0  0
  -16.1853  -23.4330  -40.3382 H   0  0  0  0  0  0  0  0  0  0  0  0
  -12.6031  -29.2063  -34.1947 H   0  0  0  0  0  0  0  0  0  0  0  0
  -18.4478  -22.7583  -41.0135 H   0  0  0  0  0  0  0  0  0  0  0  0
  -11.5601  -24.6884  -35.9677 H   0  0  0  0  0  0  0  0  0  0  0  0
  -17.8102  -25.6584  -37.0343 H   0  0  0  0  0  0  0  0  0  0  0  0
  -10.0880  -24.8595  -33.2323 H   0  0  0  0  0  0  0  0  0  0  0  0
   -8.9904  -26.1504  -33.7803 H   0  0  0  0  0  0  0  0  0  0  0  0
   -9.3879  -24.8226  -34.8695 H   0  0  0  0  0  0  0  0  0  0  0  0
  -12.1429  -28.5972  -32.0360 H   0  0  0  0  0  0  0  0  0  0  0  0
  -10.5856  -28.9517  -31.2707 H   0  0  0  0  0  0  0  0  0  0  0  0
  -11.5194  -31.4429  -31.0242 H   0  0  0  0  0  0  0  0  0  0  0  0
  -13.2164  -25.4906  -37.8881 H   0  0  0  0  0  0  0  0  0  0  0  0
  -14.8234  -24.6901  -38.9053 H   0  0  0  0  0  0  0  0  0  0  0  0
  1  2  2  0  0  0  0
  1  3  1  0  0  0  0
  2  4  1  0  0  0  0
  3 12  2  0  0  0  0
  4 13  2  0  0  0  0
  5  7  2  0  0  0  0
  5 14  1  0  0  0  0
  6  8  1  0  0  0  0
  6 15  2  0  0  0  0
  7 16  1  0  0  0  0
  8 17  2  0  0  0  0
  9 11  1  0  0  0  0
  9 14  2  0  0  0  0
 10 15  1  0  0  0  0
 10 18  2  0  0  0  0
 11 16  2  0  0  0  0
 11 21  1  0  0  0  0
 12 13  1  0  0  0  0
 12 23  1  0  0  0  0
 13 24  1  0  0  0  0
 14 25  1  0  0  0  0
 15 26  1  0  0  0  0
 16 27  1  0  0  0  0
 17 18  1  0  0  0  0
 17 29  1  0  0  0  0
 18 30  1  0  0  0  0
 19 22  1  0  0  0  0
 19 23  2  0  0  0  0
 19 24  1  0  0  0  0
 20 25  1  0  0  0  0
 20 26  1  0  0  0  0
 20 28  2  0  0  0  0
 22 27  1  0  0  0  0
  1 31  1  0  0  0  0
  2 32  1  0  0  0  0
  3 33  1  0  0  0  0
  4 34  1  0  0  0  0
  5 35  1  0  0  0  0
  6 36  1  0  0  0  0
  7 37  1  0  0  0  0
  8 38  1  0  0  0  0
  9 39  1  0  0  0  0
 10 40  1  0  0  0  0
 21 41  1  0  0  0  0
 21 42  1  0  0  0  0
 21 43  1  0  0  0  0
 22 44  1  0  0  0  0
 22 45  1  0  0  0  0
 24 46  1  0  0  0  0
 25 47  1  0  0  0  0
 26 48  1  0  0  0  0
M  END
> <Clean Energy>
84.5744

> <SourceTag>
Livi_174a

> <Activity_FLAP>
100

> <Activity_sEH>
0.7

> <Gold.Version>
5.2

> <Gold.Id.Protein>
6HGV|6HGV_protein|mol2

> <Gold.PLP.Fitness>
88.6505

> <Gold.PLP.PLP>
-85.8836

> <Gold.PLP.part.hbond>
-7.2715

> <Gold.PLP.part.metal>
0.0000

> <Gold.PLP.part.buried>
8.4275

> <Gold.PLP.part.nonpolar>
-88.1295

> <Gold.PLP.part.repulsive>
0.0408

> <Gold.PLP.ligand.clash>
0.0000

> <Gold.PLP.ligand.torsion>
1.3257

> <Gold.PLP.Chemscore.Hbond>
1.0279

> <Gold.PLP.Chemscore.CHOScore>
0.0000

> <Gold.PLP.Chemscore.Metal>
0.0000

> <Gold.Chemscore.Hbonds>
donor molecule, donor type, donor heavy atom, donor atom, acceptor molecule, acceptor atom, score
      L1  H    25    47       P1  1931  0.76
      L1  H    26    48       P1  1931  0.23
      P1  H  1256  3854       L1    23  0.04

> <Gold.PLP.Chemscore.Internal.Correction>
0.6593

> <Gold.Protein.RotatedTorsions>
[ 3525  925  924  922 ] final  169.51 input   59.99 | X-H torsion
[ 3781 1176 1175 1172 ] final    8.68 input   60.00 | X-H torsion
[ 4531 1957 1955 1953 ] final    5.41 input   60.00 | X-H torsion
[ 3847 1247 1246 1244 ] final   10.97 input   60.00 | X-H torsion
[ 4507 1931 1930 1928 ] final  160.86 input   60.00 | X-H torsion
[ 3677 1070 1069 1066 ] final  126.23 input   60.00 | X-H torsion

> <Gold.Protein.ActiveResidues>
 GLY266  PHE267  PRO268  GLU269  MET310  HIS334  ASP335  TRP336  GLY337  GLY338 
 MET339  LEU340  TRP342  TYR343  LEU358  ASN359  THR360  PRO361  ILE363  ALA365 
 MET369  SER370  PRO371  LEU372  GLU373  SER374  ILE375  LYS376  ALA377  ASN378 
 VAL380  PHE381  ASP382  TYR383  GLN384  PHE387  GLN388  LEU397  SER407  LEU408 
 PHE409  ARG410  LEU417  MET419  LEU428  PHE429  PHE459  TRP465  TYR466  ASN468 
 MET469  GLU470  ASN472  TRP473  ALA476  ASP496  PHE497  VAL498  LEU499  MET503 
 HIS524  TRP525 

> <Gold.Protein.RotatedAtoms>
   -2.1471  -30.2629  -29.5484 H   0  0  0  0  0  0  0  0  0  0  0  0  # atno 3525 bound_to 925 
  -11.4981  -22.2241  -30.6619 H   0  0  0  0  0  0  0  0  0  0  0  0  # atno 3677 bound_to 1070
  -10.8241  -37.2999  -33.5452 H   0  0  0  0  0  0  0  0  0  0  0  0  # atno 3781 bound_to 1176
  -15.5641  -28.8210  -37.0727 H   0  0  0  0  0  0  0  0  0  0  0  0  # atno 3847 bound_to 1247
  -12.6839  -23.7809  -39.9457 H   0  0  0  0  0  0  0  0  0  0  0  0  # atno 4507 bound_to 1931
   -2.9125  -32.5687  -36.6796 H   0  0  0  0  0  0  0  0  0  0  0  0  # atno 4531 bound_to 1957
   -2.9632  -29.7883  -30.8738 LP  0  0  0  0  0  0  0  0  0  0  0  0  # atno 5201 bound_to 925 
   -3.6381  -29.6294  -29.3954 LP  0  0  0  0  0  0  0  0  0  0  0  0  # atno 5202 bound_to 925 
   -9.5559  -36.3313  -33.8639 LP  0  0  0  0  0  0  0  0  0  0  0  0  # atno 5205 bound_to 1176
   -9.7252  -36.9989  -32.3833 LP  0  0  0  0  0  0  0  0  0  0  0  0  # atno 5206 bound_to 1176
   -1.3253  -32.7621  -36.9823 LP  0  0  0  0  0  0  0  0  0  0  0  0  # atno 5213 bound_to 1957
   -2.2935  -34.0671  -36.8208 LP  0  0  0  0  0  0  0  0  0  0  0  0  # atno 5214 bound_to 1957
  -15.6920  -27.2889  -37.6059 LP  0  0  0  0  0  0  0  0  0  0  0  0  # atno 5227 bound_to 1247
  -14.3057  -28.1220  -37.8313 LP  0  0  0  0  0  0  0  0  0  0  0  0  # atno 5228 bound_to 1247
  -12.8159  -24.9241  -38.7952 LP  0  0  0  0  0  0  0  0  0  0  0  0  # atno 5245 bound_to 1931
  -13.6977  -25.0347  -40.1652 LP  0  0  0  0  0  0  0  0  0  0  0  0  # atno 5246 bound_to 1931
  -12.8183  -23.1695  -30.5543 LP  0  0  0  0  0  0  0  0  0  0  0  0  # atno 5265 bound_to 1070
  -11.5408  -23.6454  -31.4534 LP  0  0  0  0  0  0  0  0  0  0  0  0  # atno 5266 bound_to 1070

$$$$
MSC-067|Lisa_paper2_min|sdf|13|dock4
  -GOLD-  10202014473D 1   1.00000     0.00000

 48 51  0  0  0  0  0  0  0  0  1 V2000
   -4.1873  -31.8485  -35.1702 C   0  0  0  0  0  0  0  0  0  0  0  0
   -4.9045  -33.0458  -35.2235 C   0  0  0  0  0  0  0  0  0  0  0  0
   -4.8348  -30.6296  -34.9323 C   0  0  0  0  0  0  0  0  0  0  0  0
   -6.2912  -33.0700  -35.0412 C   0  0  0  0  0  0  0  0  0  0  0  0
  -12.0011  -27.3925  -36.7580 C   0  0  0  0  0  0  0  0  0  0  0  0
  -17.0814  -23.4820  -39.3442 C   0  0  0  0  0  0  0  0  0  0  0  0
  -11.0306  -28.0580  -36.0091 C   0  0  0  0  0  0  0  0  0  0  0  0
  -18.4364  -23.2069  -39.5285 C   0  0  0  0  0  0  0  0  0  0  0  0
  -11.5820  -25.3703  -35.5042 C   0  0  0  0  0  0  0  0  0  0  0  0
  -17.6128  -24.7837  -37.3796 C   0  0  0  0  0  0  0  0  0  0  0  0
  -10.6115  -26.0357  -34.7552 C   0  0  0  0  0  0  0  0  0  0  0  0
   -6.2277  -30.6352  -34.7473 C   0  0  0  0  0  0  0  0  0  0  0  0
   -6.9150  -31.8444  -34.8057 C   0  0  0  0  0  0  0  0  0  0  0  0
  -12.2767  -26.0486  -36.5055 C   0  0  0  0  0  0  0  0  0  0  0  0
  -16.6696  -24.2704  -38.2697 C   0  0  0  0  0  0  0  0  0  0  0  0
  -10.3358  -27.3797  -35.0077 C   0  0  0  0  0  0  0  0  0  0  0  0
  -19.3795  -23.7203  -38.6383 C   0  0  0  0  0  0  0  0  0  0  0  0
  -18.9678  -24.5087  -37.5638 C   0  0  0  0  0  0  0  0  0  0  0  0
   -8.2795  -30.1477  -34.4127 C   0  0  0  0  0  0  0  0  0  0  0  0
  -14.6432  -25.3283  -37.1420 C   0  0  0  0  0  0  0  0  0  0  0  0
   -9.8773  -25.2942  -33.6873 C   0  0  0  0  0  0  0  0  0  0  0  0
   -9.5582  -29.4593  -34.1555 C   0  0  0  0  0  0  0  0  0  0  0  0
   -7.0917  -29.5926  -34.5022 N   0  0  0  0  0  0  0  0  0  0  0  0
   -8.2251  -31.5025  -34.5883 N   0  0  0  0  0  0  0  0  0  0  0  0
  -13.2475  -25.3833  -37.2549 N   0  0  0  0  0  0  0  0  0  0  0  0
  -15.2926  -24.5501  -38.0832 N   0  0  0  0  0  0  0  0  0  0  0  0
   -9.3875  -28.0473  -34.2830 O   0  0  0  0  0  0  0  0  0  0  0  0
  -15.3420  -26.0881  -35.8098 S   0  0  0  0  0  0  0  0  0  0  0  0
  -21.0427  -23.3414  -38.9187 Cl  0  0  0  0  0  0  0  0  0  0  0  0
  -20.0884  -25.1714  -36.4261 Cl  0  0  0  0  0  0  0  0  0  0  0  0
   -3.1099  -31.8621  -35.3152 H   0  0  0  0  0  0  0  0  0  0  0  0
   -4.3758  -33.9772  -35.4113 H   0  0  0  0  0  0  0  0  0  0  0  0
   -4.2679  -29.7050  -34.8920 H   0  0  0  0  0  0  0  0  0  0  0  0
   -6.8494  -33.9984  -35.0811 H   0  0  0  0  0  0  0  0  0  0  0  0
  -12.5363  -27.9312  -37.5359 H   0  0  0  0  0  0  0  0  0  0  0  0
  -16.3547  -23.0783  -40.0446 H   0  0  0  0  0  0  0  0  0  0  0  0
  -10.8207  -29.1049  -36.2109 H   0  0  0  0  0  0  0  0  0  0  0  0
  -18.7393  -22.5920  -40.3723 H   0  0  0  0  0  0  0  0  0  0  0  0
  -11.7958  -24.3222  -35.3062 H   0  0  0  0  0  0  0  0  0  0  0  0
  -17.2854  -25.3971  -36.5423 H   0  0  0  0  0  0  0  0  0  0  0  0
  -10.4071  -25.3808  -32.7314 H   0  0  0  0  0  0  0  0  0  0  0  0
   -8.8604  -25.6857  -33.5598 H   0  0  0  0  0  0  0  0  0  0  0  0
   -9.7805  -24.2304  -33.9379 H   0  0  0  0  0  0  0  0  0  0  0  0
  -10.3491  -29.7704  -34.8613 H   0  0  0  0  0  0  0  0  0  0  0  0
   -9.9424  -29.6663  -33.1407 H   0  0  0  0  0  0  0  0  0  0  0  0
   -9.0090  -32.1412  -34.5621 H   0  0  0  0  0  0  0  0  0  0  0  0
  -12.8905  -24.7959  -38.0184 H   0  0  0  0  0  0  0  0  0  0  0  0
  -14.6776  -24.0108  -38.6875 H   0  0  0  0  0  0  0  0  0  0  0  0
  1  2  2  0  0  0  0
  1  3  1  0  0  0  0
  2  4  1  0  0  0  0
  3 12  2  0  0  0  0
  4 13  2  0  0  0  0
  5  7  2  0  0  0  0
  5 14  1  0  0  0  0
  6  8  1  0  0  0  0
  6 15  2  0  0  0  0
  7 16  1  0  0  0  0
  8 17  2  0  0  0  0
  9 11  1  0  0  0  0
  9 14  2  0  0  0  0
 10 15  1  0  0  0  0
 10 18  2  0  0  0  0
 11 16  2  0  0  0  0
 11 21  1  0  0  0  0
 12 13  1  0  0  0  0
 12 23  1  0  0  0  0
 13 24  1  0  0  0  0
 14 25  1  0  0  0  0
 15 26  1  0  0  0  0
 16 27  1  0  0  0  0
 17 18  1  0  0  0  0
 17 29  1  0  0  0  0
 18 30  1  0  0  0  0
 19 22  1  0  0  0  0
 19 23  2  0  0  0  0
 19 24  1  0  0  0  0
 20 25  1  0  0  0  0
 20 26  1  0  0  0  0
 20 28  2  0  0  0  0
 22 27  1  0  0  0  0
  1 31  1  0  0  0  0
  2 32  1  0  0  0  0
  3 33  1  0  0  0  0
  4 34  1  0  0  0  0
  5 35  1  0  0  0  0
  6 36  1  0  0  0  0
  7 37  1  0  0  0  0
  8 38  1  0  0  0  0
  9 39  1  0  0  0  0
 10 40  1  0  0  0  0
 21 41  1  0  0  0  0
 21 42  1  0  0  0  0
 21 43  1  0  0  0  0
 22 44  1  0  0  0  0
 22 45  1  0  0  0  0
 24 46  1  0  0  0  0
 25 47  1  0  0  0  0
 26 48  1  0  0  0  0
M  END
> <Clean Energy>
84.5744

> <SourceTag>
Livi_174a

> <Activity_FLAP>
100

> <Activity_sEH>
0.7

> <Gold.Version>
5.2

> <Gold.Id.Protein>
6HGV|6HGV_protein|mol2

> <Gold.PLP.Fitness>
86.5415

> <Gold.PLP.PLP>
-84.6159

> <Gold.PLP.part.hbond>
-5.5586

> <Gold.PLP.part.metal>
0.0000

> <Gold.PLP.part.buried>
15.4002

> <Gold.PLP.part.nonpolar>
-95.0771

> <Gold.PLP.part.repulsive>
0.0342

> <Gold.PLP.ligand.clash>
0.0000

> <Gold.PLP.ligand.torsion>
1.5611

> <Gold.PLP.Chemscore.Hbond>
0.8465

> <Gold.PLP.Chemscore.CHOScore>
0.0000

> <Gold.PLP.Chemscore.Metal>
0.0000

> <Gold.Chemscore.Hbonds>
donor molecule, donor type, donor heavy atom, donor atom, acceptor molecule, acceptor atom, score
      L1  H    25    47       P1  1931  0.83
      P1  H  1247  3847       L1    28  0.01

> <Gold.PLP.Chemscore.Internal.Correction>
0.6593

> <Gold.Protein.RotatedTorsions>
[ 3525  925  924  922 ] final   41.29 input   59.99 | X-H torsion
[ 3781 1176 1175 1172 ] final -134.34 input   60.00 | X-H torsion
[ 4531 1957 1955 1953 ] final -112.32 input   60.00 | X-H torsion
[ 3847 1247 1246 1244 ] final  -29.51 input   60.00 | X-H torsion
[ 4507 1931 1930 1928 ] final -120.33 input   60.00 | X-H torsion
[ 3677 1070 1069 1066 ] final   87.22 input   60.00 | X-H torsion

> <Gold.Protein.ActiveResidues>
 GLY266  PHE267  PRO268  GLU269  MET310  HIS334  ASP335  TRP336  GLY337  GLY338 
 MET339  LEU340  TRP342  TYR343  LEU358  ASN359  THR360  PRO361  ILE363  ALA365 
 MET369  SER370  PRO371  LEU372  GLU373  SER374  ILE375  LYS376  ALA377  ASN378 
 VAL380  PHE381  ASP382  TYR383  GLN384  PHE387  GLN388  LEU397  SER407  LEU408 
 PHE409  ARG410  LEU417  MET419  LEU428  PHE429  PHE459  TRP465  TYR466  ASN468 
 MET469  GLU470  ASN472  TRP473  ALA476  ASP496  PHE497  VAL498  LEU499  MET503 
 HIS524  TRP525 

> <Gold.Protein.RotatedAtoms>
   -3.0841  -29.7357  -30.8452 H   0  0  0  0  0  0  0  0  0  0  0  0  # atno 3525 bound_to 925 
  -12.0600  -22.2280  -30.3879 H   0  0  0  0  0  0  0  0  0  0  0  0  # atno 3677 bound_to 1070
   -9.3481  -36.3125  -33.5522 H   0  0  0  0  0  0  0  0  0  0  0  0  # atno 3781 bound_to 1176
  -15.9902  -28.3336  -37.0919 H   0  0  0  0  0  0  0  0  0  0  0  0  # atno 3847 bound_to 1247
  -13.4860  -24.4862  -40.4672 H   0  0  0  0  0  0  0  0  0  0  0  0  # atno 4507 bound_to 1931
   -1.3465  -32.7308  -36.9802 H   0  0  0  0  0  0  0  0  0  0  0  0  # atno 4531 bound_to 1957
   -3.5629  -29.6717  -29.2913 LP  0  0  0  0  0  0  0  0  0  0  0  0  # atno 5201 bound_to 925 
   -2.0948  -30.2769  -29.6720 LP  0  0  0  0  0  0  0  0  0  0  0  0  # atno 5202 bound_to 925 
  -10.0380  -37.2082  -32.3818 LP  0  0  0  0  0  0  0  0  0  0  0  0  # atno 5205 bound_to 1176
  -10.7294  -37.1164  -33.8583 LP  0  0  0  0  0  0  0  0  0  0  0  0  # atno 5206 bound_to 1176
   -2.2570  -34.0709  -36.8278 LP  0  0  0  0  0  0  0  0  0  0  0  0  # atno 5213 bound_to 1957
   -2.9387  -32.5952  -36.6727 LP  0  0  0  0  0  0  0  0  0  0  0  0  # atno 5214 bound_to 1957
  -15.0990  -27.2143  -37.8672 LP  0  0  0  0  0  0  0  0  0  0  0  0  # atno 5227 bound_to 1247
  -14.4696  -28.6875  -37.5507 LP  0  0  0  0  0  0  0  0  0  0  0  0  # atno 5228 bound_to 1247
  -12.4424  -23.9309  -39.3489 LP  0  0  0  0  0  0  0  0  0  0  0  0  # atno 5245 bound_to 1931
  -13.2635  -25.3177  -39.0862 LP  0  0  0  0  0  0  0  0  0  0  0  0  # atno 5246 bound_to 1931
  -12.6414  -23.6530  -30.9166 LP  0  0  0  0  0  0  0  0  0  0  0  0  # atno 5265 bound_to 1070
  -11.1519  -23.1579  -31.3670 LP  0  0  0  0  0  0  0  0  0  0  0  0  # atno 5266 bound_to 1070

$$$$
MSC-067|Lisa_paper2_min|sdf|13|dock2
  -GOLD-  10202014473D 1   1.00000     0.00000

 48 51  0  0  0  0  0  0  0  0  1 V2000
   -9.7802  -34.4052  -35.5144 C   0  0  0  0  0  0  0  0  0  0  0  0
   -8.7329  -33.6419  -36.0353 C   0  0  0  0  0  0  0  0  0  0  0  0
  -10.6927  -33.8537  -34.6063 C   0  0  0  0  0  0  0  0  0  0  0  0
   -8.5589  -32.3029  -35.6696 C   0  0  0  0  0  0  0  0  0  0  0  0
  -13.2815  -27.6317  -35.6109 C   0  0  0  0  0  0  0  0  0  0  0  0
  -17.0701  -23.6283  -39.7307 C   0  0  0  0  0  0  0  0  0  0  0  0
  -12.4793  -28.2398  -34.6455 C   0  0  0  0  0  0  0  0  0  0  0  0
  -18.3537  -23.2392  -40.1134 C   0  0  0  0  0  0  0  0  0  0  0  0
  -11.8261  -25.7033  -35.6059 C   0  0  0  0  0  0  0  0  0  0  0  0
  -18.0046  -24.9400  -37.9299 C   0  0  0  0  0  0  0  0  0  0  0  0
  -11.0238  -26.3113  -34.6404 C   0  0  0  0  0  0  0  0  0  0  0  0
  -10.5328  -32.5099  -34.2276 C   0  0  0  0  0  0  0  0  0  0  0  0
   -9.4794  -31.7747  -34.7640 C   0  0  0  0  0  0  0  0  0  0  0  0
  -12.9549  -26.3634  -36.0912 C   0  0  0  0  0  0  0  0  0  0  0  0
  -16.8956  -24.4788  -38.6389 C   0  0  0  0  0  0  0  0  0  0  0  0
  -11.3504  -27.5797  -34.1602 C   0  0  0  0  0  0  0  0  0  0  0  0
  -19.4628  -23.7005  -39.4044 C   0  0  0  0  0  0  0  0  0  0  0  0
  -19.2882  -24.5509  -38.3125 C   0  0  0  0  0  0  0  0  0  0  0  0
  -10.6979  -30.5601  -33.3729 C   0  0  0  0  0  0  0  0  0  0  0  0
  -15.1372  -25.5151  -37.1121 C   0  0  0  0  0  0  0  0  0  0  0  0
   -9.8191  -25.5904  -34.1321 C   0  0  0  0  0  0  0  0  0  0  0  0
  -11.1122  -29.3677  -32.6103 C   0  0  0  0  0  0  0  0  0  0  0  0
  -11.2788  -31.7389  -33.3659 N   0  0  0  0  0  0  0  0  0  0  0  0
   -9.6096  -30.5316  -34.1999 N   0  0  0  0  0  0  0  0  0  0  0  0
  -13.7577  -25.7556  -37.0569 N   0  0  0  0  0  0  0  0  0  0  0  0
  -15.5909  -24.8744  -38.2508 N   0  0  0  0  0  0  0  0  0  0  0  0
  -10.5747  -28.1904  -33.2138 O   0  0  0  0  0  0  0  0  0  0  0  0
  -16.0447  -25.8997  -35.7451 S   0  0  0  0  0  0  0  0  0  0  0  0
  -21.0266  -23.1801  -39.9258 Cl  0  0  0  0  0  0  0  0  0  0  0  0
  -20.6226  -25.1539  -37.3933 Cl  0  0  0  0  0  0  0  0  0  0  0  0
   -9.8896  -35.4433  -35.8183 H   0  0  0  0  0  0  0  0  0  0  0  0
   -8.0384  -34.0967  -36.7375 H   0  0  0  0  0  0  0  0  0  0  0  0
  -11.5035  -34.4553  -34.2082 H   0  0  0  0  0  0  0  0  0  0  0  0
   -7.7473  -31.7087  -36.0737 H   0  0  0  0  0  0  0  0  0  0  0  0
  -14.1589  -28.1555  -35.9819 H   0  0  0  0  0  0  0  0  0  0  0  0
  -16.2127  -23.2644  -40.2910 H   0  0  0  0  0  0  0  0  0  0  0  0
  -12.7392  -29.2280  -34.2757 H   0  0  0  0  0  0  0  0  0  0  0  0
  -18.4710  -22.5771  -40.9678 H   0  0  0  0  0  0  0  0  0  0  0  0
  -11.5701  -24.7142  -35.9794 H   0  0  0  0  0  0  0  0  0  0  0  0
  -17.8620  -25.6023  -37.0782 H   0  0  0  0  0  0  0  0  0  0  0  0
  -10.0814  -24.9792  -33.2606 H   0  0  0  0  0  0  0  0  0  0  0  0
   -9.0293  -26.2938  -33.8406 H   0  0  0  0  0  0  0  0  0  0  0  0
   -9.3942  -24.9354  -34.9031 H   0  0  0  0  0  0  0  0  0  0  0  0
  -12.2108  -29.2578  -32.5718 H   0  0  0  0  0  0  0  0  0  0  0  0
  -10.7625  -29.4045  -31.5632 H   0  0  0  0  0  0  0  0  0  0  0  0
   -9.0068  -29.7369  -34.3684 H   0  0  0  0  0  0  0  0  0  0  0  0
  -13.2596  -25.3824  -37.8742 H   0  0  0  0  0  0  0  0  0  0  0  0
  -14.8584  -24.5457  -38.8751 H   0  0  0  0  0  0  0  0  0  0  0  0
  1  2  2  0  0  0  0
  1  3  1  0  0  0  0
  2  4  1  0  0  0  0
  3 12  2  0  0  0  0
  4 13  2  0  0  0  0
  5  7  2  0  0  0  0
  5 14  1  0  0  0  0
  6  8  1  0  0  0  0
  6 15  2  0  0  0  0
  7 16  1  0  0  0  0
  8 17  2  0  0  0  0
  9 11  1  0  0  0  0
  9 14  2  0  0  0  0
 10 15  1  0  0  0  0
 10 18  2  0  0  0  0
 11 16  2  0  0  0  0
 11 21  1  0  0  0  0
 12 13  1  0  0  0  0
 12 23  1  0  0  0  0
 13 24  1  0  0  0  0
 14 25  1  0  0  0  0
 15 26  1  0  0  0  0
 16 27  1  0  0  0  0
 17 18  1  0  0  0  0
 17 29  1  0  0  0  0
 18 30  1  0  0  0  0
 19 22  1  0  0  0  0
 19 23  2  0  0  0  0
 19 24  1  0  0  0  0
 20 25  1  0  0  0  0
 20 26  1  0  0  0  0
 20 28  2  0  0  0  0
 22 27  1  0  0  0  0
  1 31  1  0  0  0  0
  2 32  1  0  0  0  0
  3 33  1  0  0  0  0
  4 34  1  0  0  0  0
  5 35  1  0  0  0  0
  6 36  1  0  0  0  0
  7 37  1  0  0  0  0
  8 38  1  0  0  0  0
  9 39  1  0  0  0  0
 10 40  1  0  0  0  0
 21 41  1  0  0  0  0
 21 42  1  0  0  0  0
 21 43  1  0  0  0  0
 22 44  1  0  0  0  0
 22 45  1  0  0  0  0
 24 46  1  0  0  0  0
 25 47  1  0  0  0  0
 26 48  1  0  0  0  0
M  END
> <Clean Energy>
84.5744

> <SourceTag>
Livi_174a

> <Activity_FLAP>
100

> <Activity_sEH>
0.7

> <Gold.Version>
5.2

> <Gold.Id.Protein>
6HGV|6HGV_protein|mol2

> <Gold.PLP.Fitness>
84.4443

> <Gold.PLP.PLP>
-83.5024

> <Gold.PLP.part.hbond>
-6.6746

> <Gold.PLP.part.metal>
0.0000

> <Gold.PLP.part.buried>
4.7583

> <Gold.PLP.part.nonpolar>
-82.2367

> <Gold.PLP.part.repulsive>
0.0389

> <Gold.PLP.ligand.clash>
1.8476

> <Gold.PLP.ligand.torsion>
1.1004

> <Gold.PLP.Chemscore.Hbond>
0.9535

> <Gold.PLP.Chemscore.CHOScore>
0.0000

> <Gold.PLP.Chemscore.Metal>
0.0000

> <Gold.Chemscore.Hbonds>
donor molecule, donor type, donor heavy atom, donor atom, acceptor molecule, acceptor atom, score
      L1  H    25    47       P1  1931  0.86
      L1  H    26    48       P1  1931  0.10

> <Gold.PLP.Chemscore.Internal.Correction>
0.7050

> <Gold.Protein.RotatedTorsions>
[ 3525  925  924  922 ] final -117.94 input   59.99 | X-H torsion
[ 3781 1176 1175 1172 ] final  158.42 input   60.00 | X-H torsion
[ 4531 1957 1955 1953 ] final  -93.04 input   60.00 | X-H torsion
[ 3847 1247 1246 1244 ] final -144.75 input   60.00 | X-H torsion
[ 4507 1931 1930 1928 ] final  163.15 input   60.00 | X-H torsion
[ 3677 1070 1069 1066 ] final  -25.91 input   60.00 | X-H torsion

> <Gold.Protein.ActiveResidues>
 GLY266  PHE267  PRO268  GLU269  MET310  HIS334  ASP335  TRP336  GLY337  GLY338 
 MET339  LEU340  TRP342  TYR343  LEU358  ASN359  THR360  PRO361  ILE363  ALA365 
 MET369  SER370  PRO371  LEU372  GLU373  SER374  ILE375  LYS376  ALA377  ASN378 
 VAL380  PHE381  ASP382  TYR383  GLN384  PHE387  GLN388  LEU397  SER407  LEU408 
 PHE409  ARG410  LEU417  MET419  LEU428  PHE429  PHE459  TRP465  TYR466  ASN468 
 MET469  GLU470  ASN472  TRP473  ALA476  ASP496  PHE497  VAL498  LEU499  MET503 
 HIS524  TRP525 

> <Gold.Protein.RotatedAtoms>
   -3.0529  -29.9170  -29.0127 H   0  0  0  0  0  0  0  0  0  0  0  0  # atno 3525 bound_to 925 
  -12.6931  -23.5808  -30.8471 H   0  0  0  0  0  0  0  0  0  0  0  0  # atno 3677 bound_to 1070
   -9.4044  -36.7083  -32.5957 H   0  0  0  0  0  0  0  0  0  0  0  0  # atno 3781 bound_to 1176
  -15.1734  -27.2073  -37.8434 H   0  0  0  0  0  0  0  0  0  0  0  0  # atno 3847 bound_to 1247
  -12.7044  -23.7841  -39.9768 H   0  0  0  0  0  0  0  0  0  0  0  0  # atno 4507 bound_to 1931
   -1.5222  -32.4739  -36.9423 H   0  0  0  0  0  0  0  0  0  0  0  0  # atno 4531 bound_to 1957
   -2.1055  -30.2146  -30.3018 LP  0  0  0  0  0  0  0  0  0  0  0  0  # atno 5201 bound_to 925 
   -3.5836  -29.5514  -30.5069 LP  0  0  0  0  0  0  0  0  0  0  0  0  # atno 5202 bound_to 925 
  -10.7749  -37.4363  -33.0853 LP  0  0  0  0  0  0  0  0  0  0  0  0  # atno 5205 bound_to 1176
   -9.9359  -36.4897  -34.1181 LP  0  0  0  0  0  0  0  0  0  0  0  0  # atno 5206 bound_to 1176
   -1.9479  -34.0435  -36.8861 LP  0  0  0  0  0  0  0  0  0  0  0  0  # atno 5213 bound_to 1957
   -3.0709  -32.8812  -36.6525 LP  0  0  0  0  0  0  0  0  0  0  0  0  # atno 5214 bound_to 1957
  -14.4291  -28.6317  -37.5879 LP  0  0  0  0  0  0  0  0  0  0  0  0  # atno 5227 bound_to 1247
  -15.9621  -28.4043  -37.0732 LP  0  0  0  0  0  0  0  0  0  0  0  0  # atno 5228 bound_to 1247
  -12.7927  -24.8948  -38.7908 LP  0  0  0  0  0  0  0  0  0  0  0  0  # atno 5245 bound_to 1931
  -13.7002  -25.0608  -40.1382 LP  0  0  0  0  0  0  0  0  0  0  0  0  # atno 5246 bound_to 1931
  -11.1976  -23.2557  -31.4002 LP  0  0  0  0  0  0  0  0  0  0  0  0  # atno 5265 bound_to 1070
  -11.9581  -22.1929  -30.4210 LP  0  0  0  0  0  0  0  0  0  0  0  0  # atno 5266 bound_to 1070

$$$$
MSC-067|Lisa_paper2_min|sdf|13|dock8
  -GOLD-  10202014483D 1   1.00000     0.00000

 48 51  0  0  0  0  0  0  0  0  1 V2000
   -5.0861  -32.6187  -35.4976 C   0  0  0  0  0  0  0  0  0  0  0  0
   -4.4994  -31.3513  -35.5085 C   0  0  0  0  0  0  0  0  0  0  0  0
   -6.4297  -32.7887  -35.1407 C   0  0  0  0  0  0  0  0  0  0  0  0
   -5.2310  -30.2097  -35.1645 C   0  0  0  0  0  0  0  0  0  0  0  0
  -12.4155  -27.2640  -36.0117 C   0  0  0  0  0  0  0  0  0  0  0  0
  -17.3613  -24.5148  -37.7796 C   0  0  0  0  0  0  0  0  0  0  0  0
  -11.5787  -28.0380  -35.2079 C   0  0  0  0  0  0  0  0  0  0  0  0
  -18.6569  -24.2822  -38.2411 C   0  0  0  0  0  0  0  0  0  0  0  0
  -11.2334  -25.2722  -35.3246 C   0  0  0  0  0  0  0  0  0  0  0  0
  -16.4752  -23.2098  -39.6096 C   0  0  0  0  0  0  0  0  0  0  0  0
  -10.3965  -26.0461  -34.5207 C   0  0  0  0  0  0  0  0  0  0  0  0
   -7.1797  -31.6527  -34.7919 C   0  0  0  0  0  0  0  0  0  0  0  0
   -6.5671  -30.4028  -34.8124 C   0  0  0  0  0  0  0  0  0  0  0  0
  -12.2428  -25.8810  -36.0701 C   0  0  0  0  0  0  0  0  0  0  0  0
  -16.2705  -23.9785  -38.4639 C   0  0  0  0  0  0  0  0  0  0  0  0
  -10.5692  -27.4291  -34.4623 C   0  0  0  0  0  0  0  0  0  0  0  0
  -18.8616  -23.5134  -39.3868 C   0  0  0  0  0  0  0  0  0  0  0  0
  -17.7707  -22.9772  -40.0711 C   0  0  0  0  0  0  0  0  0  0  0  0
   -8.6884  -30.2626  -34.1993 C   0  0  0  0  0  0  0  0  0  0  0  0
  -14.4586  -25.1645  -37.1193 C   0  0  0  0  0  0  0  0  0  0  0  0
   -9.3211  -25.3778  -33.7294 C   0  0  0  0  0  0  0  0  0  0  0  0
   -9.9422  -29.6161  -33.7695 C   0  0  0  0  0  0  0  0  0  0  0  0
   -8.4970  -31.5458  -34.4089 N   0  0  0  0  0  0  0  0  0  0  0  0
   -7.5554  -29.5328  -34.4291 N   0  0  0  0  0  0  0  0  0  0  0  0
  -13.0800  -25.1073  -36.8744 N   0  0  0  0  0  0  0  0  0  0  0  0
  -14.9541  -24.2147  -37.9941 N   0  0  0  0  0  0  0  0  0  0  0  0
   -9.7577  -28.2030  -33.6794 O   0  0  0  0  0  0  0  0  0  0  0  0
  -15.3578  -26.2740  -36.2244 S   0  0  0  0  0  0  0  0  0  0  0  0
  -20.4902  -23.2637  -39.9099 Cl  0  0  0  0  0  0  0  0  0  0  0  0
  -17.9600  -22.0186  -41.4974 Cl  0  0  0  0  0  0  0  0  0  0  0  0
   -4.4916  -33.4870  -35.7706 H   0  0  0  0  0  0  0  0  0  0  0  0
   -3.4536  -31.2492  -35.7884 H   0  0  0  0  0  0  0  0  0  0  0  0
   -6.8762  -33.7779  -35.1364 H   0  0  0  0  0  0  0  0  0  0  0  0
   -4.7776  -29.2252  -35.1734 H   0  0  0  0  0  0  0  0  0  0  0  0
  -13.1989  -27.7493  -36.5884 H   0  0  0  0  0  0  0  0  0  0  0  0
  -17.2129  -25.1139  -36.8849 H   0  0  0  0  0  0  0  0  0  0  0  0
  -11.7186  -29.1148  -35.1670 H   0  0  0  0  0  0  0  0  0  0  0  0
  -19.4953  -24.7066  -37.6944 H   0  0  0  0  0  0  0  0  0  0  0  0
  -11.0975  -24.1938  -35.3691 H   0  0  0  0  0  0  0  0  0  0  0  0
  -15.6201  -22.7952  -40.1399 H   0  0  0  0  0  0  0  0  0  0  0  0
   -9.6981  -25.0930  -32.7401 H   0  0  0  0  0  0  0  0  0  0  0  0
   -8.4566  -26.0400  -33.5964 H   0  0  0  0  0  0  0  0  0  0  0  0
   -8.9570  -24.4760  -34.2374 H   0  0  0  0  0  0  0  0  0  0  0  0
  -10.7722  -29.8055  -34.4736 H   0  0  0  0  0  0  0  0  0  0  0  0
  -10.2777  -29.9800  -32.7820 H   0  0  0  0  0  0  0  0  0  0  0  0
   -7.4602  -28.5301  -34.3351 H   0  0  0  0  0  0  0  0  0  0  0  0
  -12.6250  -24.3272  -37.3640 H   0  0  0  0  0  0  0  0  0  0  0  0
  -14.2825  -23.5057  -38.2781 H   0  0  0  0  0  0  0  0  0  0  0  0
  1  2  2  0  0  0  0
  1  3  1  0  0  0  0
  2  4  1  0  0  0  0
  3 12  2  0  0  0  0
  4 13  2  0  0  0  0
  5  7  2  0  0  0  0
  5 14  1  0  0  0  0
  6  8  1  0  0  0  0
  6 15  2  0  0  0  0
  7 16  1  0  0  0  0
  8 17  2  0  0  0  0
  9 11  1  0  0  0  0
  9 14  2  0  0  0  0
 10 15  1  0  0  0  0
 10 18  2  0  0  0  0
 11 16  2  0  0  0  0
 11 21  1  0  0  0  0
 12 13  1  0  0  0  0
 12 23  1  0  0  0  0
 13 24  1  0  0  0  0
 14 25  1  0  0  0  0
 15 26  1  0  0  0  0
 16 27  1  0  0  0  0
 17 18  1  0  0  0  0
 17 29  1  0  0  0  0
 18 30  1  0  0  0  0
 19 22  1  0  0  0  0
 19 23  2  0  0  0  0
 19 24  1  0  0  0  0
 20 25  1  0  0  0  0
 20 26  1  0  0  0  0
 20 28  2  0  0  0  0
 22 27  1  0  0  0  0
  1 31  1  0  0  0  0
  2 32  1  0  0  0  0
  3 33  1  0  0  0  0
  4 34  1  0  0  0  0
  5 35  1  0  0  0  0
  6 36  1  0  0  0  0
  7 37  1  0  0  0  0
  8 38  1  0  0  0  0
  9 39  1  0  0  0  0
 10 40  1  0  0  0  0
 21 41  1  0  0  0  0
 21 42  1  0  0  0  0
 21 43  1  0  0  0  0
 22 44  1  0  0  0  0
 22 45  1  0  0  0  0
 24 46  1  0  0  0  0
 25 47  1  0  0  0  0
 26 48  1  0  0  0  0
M  END
> <Clean Energy>
84.5744

> <SourceTag>
Livi_174a

> <Activity_FLAP>
100

> <Activity_sEH>
0.7

> <Gold.Version>
5.2

> <Gold.Id.Protein>
6HGV|6HGV_protein|mol2

> <Gold.PLP.Fitness>
81.0544

> <Gold.PLP.PLP>
-81.0109

> <Gold.PLP.part.hbond>
-8.4078

> <Gold.PLP.part.metal>
0.0000

> <Gold.PLP.part.buried>
11.8890

> <Gold.PLP.part.nonpolar>
-85.9097

> <Gold.PLP.part.repulsive>
0.0376

> <Gold.PLP.ligand.clash>
2.1496

> <Gold.PLP.ligand.torsion>
0.7880

> <Gold.PLP.Chemscore.Hbond>
0.7079

> <Gold.PLP.Chemscore.CHOScore>
0.0000

> <Gold.PLP.Chemscore.Metal>
0.0000

> <Gold.Chemscore.Hbonds>
donor molecule, donor type, donor heavy atom, donor atom, acceptor molecule, acceptor atom, score
      L1  H    25    47       P1  1931  0.26
      L1  H    26    48       P1   854  0.01
      P1  H  1247  3847       L1    28  0.44

> <Gold.PLP.Chemscore.Internal.Correction>
0.6168

> <Gold.Protein.RotatedTorsions>
[ 3525  925  924  922 ] final  -76.06 input   59.99 | X-H torsion
[ 3781 1176 1175 1172 ] final   31.69 input   60.00 | X-H torsion
[ 4531 1957 1955 1953 ] final   76.11 input   60.00 | X-H torsion
[ 3847 1247 1246 1244 ] final  -67.12 input   60.00 | X-H torsion
[ 4507 1931 1930 1928 ] final -154.10 input   60.00 | X-H torsion
[ 3677 1070 1069 1066 ] final   65.87 input   60.00 | X-H torsion

> <Gold.Protein.ActiveResidues>
 GLY266  PHE267  PRO268  GLU269  MET310  HIS334  ASP335  TRP336  GLY337  GLY338 
 MET339  LEU340  TRP342  TYR343  LEU358  ASN359  THR360  PRO361  ILE363  ALA365 
 MET369  SER370  PRO371  LEU372  GLU373  SER374  ILE375  LYS376  ALA377  ASN378 
 VAL380  PHE381  ASP382  TYR383  GLN384  PHE387  GLN388  LEU397  SER407  LEU408 
 PHE409  ARG410  LEU417  MET419  LEU428  PHE429  PHE459  TRP465  TYR466  ASN468 
 MET469  GLU470  ASN472  TRP473  ALA476  ASP496  PHE497  VAL498  LEU499  MET503 
 HIS524  TRP525 

> <Gold.Protein.RotatedAtoms>
   -3.5830  -29.6571  -29.3276 H   0  0  0  0  0  0  0  0  0  0  0  0  # atno 3525 bound_to 925 
  -12.3634  -22.3851  -30.3282 H   0  0  0  0  0  0  0  0  0  0  0  0  # atno 3677 bound_to 1070
  -10.7993  -37.4160  -33.1911 H   0  0  0  0  0  0  0  0  0  0  0  0  # atno 3781 bound_to 1176
  -16.0438  -27.7653  -37.2883 H   0  0  0  0  0  0  0  0  0  0  0  0  # atno 3847 bound_to 1247
  -13.1530  -24.0599  -40.4108 H   0  0  0  0  0  0  0  0  0  0  0  0  # atno 4507 bound_to 1931
   -2.9455  -33.6516  -36.6921 H   0  0  0  0  0  0  0  0  0  0  0  0  # atno 4531 bound_to 1957
   -2.1084  -30.2747  -29.6307 LP  0  0  0  0  0  0  0  0  0  0  0  0  # atno 5201 bound_to 925 
   -3.0469  -29.7530  -30.8610 LP  0  0  0  0  0  0  0  0  0  0  0  0  # atno 5202 bound_to 925 
   -9.8436  -36.4429  -34.0787 LP  0  0  0  0  0  0  0  0  0  0  0  0  # atno 5205 bound_to 1176
   -9.4623  -36.7704  -32.5250 LP  0  0  0  0  0  0  0  0  0  0  0  0  # atno 5206 bound_to 1176
   -2.2364  -32.1907  -36.7992 LP  0  0  0  0  0  0  0  0  0  0  0  0  # atno 5213 bound_to 1957
   -1.3492  -33.5481  -36.9913 LP  0  0  0  0  0  0  0  0  0  0  0  0  # atno 5214 bound_to 1957
  -14.5799  -27.5184  -37.9546 LP  0  0  0  0  0  0  0  0  0  0  0  0  # atno 5227 bound_to 1247
  -14.9346  -28.9557  -37.2655 LP  0  0  0  0  0  0  0  0  0  0  0  0  # atno 5228 bound_to 1247
  -12.4746  -24.3075  -38.9526 LP  0  0  0  0  0  0  0  0  0  0  0  0  # atno 5245 bound_to 1931
  -13.5665  -25.3705  -39.5394 LP  0  0  0  0  0  0  0  0  0  0  0  0  # atno 5246 bound_to 1931
  -12.4029  -23.8058  -31.1209 LP  0  0  0  0  0  0  0  0  0  0  0  0  # atno 5265 bound_to 1070
  -11.0849  -22.8470  -31.2228 LP  0  0  0  0  0  0  0  0  0  0  0  0  # atno 5266 bound_to 1070

$$$$
