IA_82.cdx|SeH_inactivess_minimized|sdf|160|dock10
  -GOLD-   4172122223D 1   1.00000     0.00000

 56 55  0  0  0  0  0  0  0  0  1 V2000
   -8.5140  -30.1055  -34.0329 C   0  0  0  0  0  0  0  0  0  0  0  0
   -5.0093  -33.5246  -32.7201 C   0  0  0  0  0  0  0  0  0  0  0  0
   -6.8137  -34.3405  -34.2137 C   0  0  0  0  0  0  0  0  0  0  0  0
   -7.3839  -32.8072  -32.3359 C   0  0  0  0  0  0  0  0  0  0  0  0
  -10.8196  -26.4263  -33.2964 C   0  0  0  0  0  0  0  0  0  0  0  0
  -11.0793  -26.2125  -35.7539 C   0  0  0  0  0  0  0  0  0  0  0  0
   -8.9446  -27.0968  -34.8246 C   0  0  0  0  0  0  0  0  0  0  0  0
   -4.8996  -30.1735  -32.9860 C   0  0  0  0  0  0  0  0  0  0  0  0
   -5.8310  -29.5896  -35.2158 C   0  0  0  0  0  0  0  0  0  0  0  0
  -11.8463  -29.4148  -32.4631 C   0  0  0  0  0  0  0  0  0  0  0  0
  -11.2500  -30.9698  -34.3091 C   0  0  0  0  0  0  0  0  0  0  0  0
   -6.1175  -31.9457  -34.4199 C   0  0  0  0  0  0  0  0  0  0  0  0
  -11.1078  -28.5133  -34.7700 C   0  0  0  0  0  0  0  0  0  0  0  0
   -6.3261  -33.1140  -33.4045 C   0  0  0  0  0  0  0  0  0  0  0  0
  -10.4679  -27.0948  -34.6382 C   0  0  0  0  0  0  0  0  0  0  0  0
   -6.0450  -30.4602  -33.9606 C   0  0  0  0  0  0  0  0  0  0  0  0
  -10.9266  -29.6024  -33.6727 C   0  0  0  0  0  0  0  0  0  0  0  0
   -7.3021  -30.0478  -33.3595 N   0  0  0  0  0  0  0  0  0  0  0  0
   -9.5544  -29.6518  -33.2260 N   0  0  0  0  0  0  0  0  0  0  0  0
   -8.6560  -30.5040  -35.1882 O   0  0  0  0  0  0  0  0  0  0  0  0
   -4.2105  -33.7302  -33.4346 H   0  0  0  0  0  0  0  0  0  0  0  0
   -5.1460  -34.4167  -32.0990 H   0  0  0  0  0  0  0  0  0  0  0  0
   -4.6416  -32.7243  -32.0667 H   0  0  0  0  0  0  0  0  0  0  0  0
   -7.7841  -34.1434  -34.6837 H   0  0  0  0  0  0  0  0  0  0  0  0
   -6.9252  -35.2214  -33.5710 H   0  0  0  0  0  0  0  0  0  0  0  0
   -6.1061  -34.6019  -35.0089 H   0  0  0  0  0  0  0  0  0  0  0  0
   -8.3241  -32.4814  -32.7964 H   0  0  0  0  0  0  0  0  0  0  0  0
   -7.6180  -33.6863  -31.7281 H   0  0  0  0  0  0  0  0  0  0  0  0
   -7.0523  -32.0040  -31.6690 H   0  0  0  0  0  0  0  0  0  0  0  0
  -10.6078  -25.3558  -33.2918 H   0  0  0  0  0  0  0  0  0  0  0  0
  -10.2677  -26.8840  -32.4679 H   0  0  0  0  0  0  0  0  0  0  0  0
  -11.8885  -26.5313  -33.0750 H   0  0  0  0  0  0  0  0  0  0  0  0
  -10.8455  -26.6131  -36.7469 H   0  0  0  0  0  0  0  0  0  0  0  0
  -10.6929  -25.1879  -35.7063 H   0  0  0  0  0  0  0  0  0  0  0  0
  -12.1705  -26.1563  -35.6662 H   0  0  0  0  0  0  0  0  0  0  0  0
   -8.4496  -27.6310  -34.0049 H   0  0  0  0  0  0  0  0  0  0  0  0
   -8.6466  -27.5953  -35.7517 H   0  0  0  0  0  0  0  0  0  0  0  0
   -8.5454  -26.0767  -34.8367 H   0  0  0  0  0  0  0  0  0  0  0  0
   -4.7017  -29.0967  -32.9184 H   0  0  0  0  0  0  0  0  0  0  0  0
   -3.9719  -30.6600  -33.3049 H   0  0  0  0  0  0  0  0  0  0  0  0
   -5.1396  -30.4972  -31.9691 H   0  0  0  0  0  0  0  0  0  0  0  0
   -4.7760  -29.5684  -35.5118 H   0  0  0  0  0  0  0  0  0  0  0  0
   -6.4126  -29.9685  -36.0648 H   0  0  0  0  0  0  0  0  0  0  0  0
   -6.1528  -28.5558  -35.0427 H   0  0  0  0  0  0  0  0  0  0  0  0
  -11.6212  -28.4771  -31.9402 H   0  0  0  0  0  0  0  0  0  0  0  0
  -11.7302  -30.2306  -31.7419 H   0  0  0  0  0  0  0  0  0  0  0  0
  -12.8975  -29.3473  -32.7575 H   0  0  0  0  0  0  0  0  0  0  0  0
  -12.3314  -31.1233  -34.3973 H   0  0  0  0  0  0  0  0  0  0  0  0
  -10.8137  -31.0535  -35.3116 H   0  0  0  0  0  0  0  0  0  0  0  0
  -10.8409  -31.7933  -33.7117 H   0  0  0  0  0  0  0  0  0  0  0  0
   -6.9324  -32.0054  -35.1574 H   0  0  0  0  0  0  0  0  0  0  0  0
   -5.2030  -32.1696  -34.9887 H   0  0  0  0  0  0  0  0  0  0  0  0
  -10.7381  -28.9518  -35.7096 H   0  0  0  0  0  0  0  0  0  0  0  0
  -12.1867  -28.3691  -34.9294 H   0  0  0  0  0  0  0  0  0  0  0  0
   -7.2933  -29.7037  -32.4085 H   0  0  0  0  0  0  0  0  0  0  0  0
   -9.3496  -29.3854  -32.2681 H   0  0  0  0  0  0  0  0  0  0  0  0
  1 18  1  0  0  0  0
  1 19  1  0  0  0  0
  1 20  2  0  0  0  0
  2 14  1  0  0  0  0
  3 14  1  0  0  0  0
  4 14  1  0  0  0  0
  5 15  1  0  0  0  0
  6 15  1  0  0  0  0
  7 15  1  0  0  0  0
  8 16  1  0  0  0  0
  9 16  1  0  0  0  0
 10 17  1  0  0  0  0
 11 17  1  0  0  0  0
 12 14  1  0  0  0  0
 12 16  1  0  0  0  0
 13 15  1  0  0  0  0
 13 17  1  0  0  0  0
 16 18  1  0  0  0  0
 17 19  1  0  0  0  0
  2 21  1  0  0  0  0
  2 22  1  0  0  0  0
  2 23  1  0  0  0  0
  3 24  1  0  0  0  0
  3 25  1  0  0  0  0
  3 26  1  0  0  0  0
  4 27  1  0  0  0  0
  4 28  1  0  0  0  0
  4 29  1  0  0  0  0
  5 30  1  0  0  0  0
  5 31  1  0  0  0  0
  5 32  1  0  0  0  0
  6 33  1  0  0  0  0
  6 34  1  0  0  0  0
  6 35  1  0  0  0  0
  7 36  1  0  0  0  0
  7 37  1  0  0  0  0
  7 38  1  0  0  0  0
  8 39  1  0  0  0  0
  8 40  1  0  0  0  0
  8 41  1  0  0  0  0
  9 42  1  0  0  0  0
  9 43  1  0  0  0  0
  9 44  1  0  0  0  0
 10 45  1  0  0  0  0
 10 46  1  0  0  0  0
 10 47  1  0  0  0  0
 11 48  1  0  0  0  0
 11 49  1  0  0  0  0
 11 50  1  0  0  0  0
 12 51  1  0  0  0  0
 12 52  1  0  0  0  0
 13 53  1  0  0  0  0
 13 54  1  0  0  0  0
 18 55  1  0  0  0  0
 19 56  1  0  0  0  0
M  END
> <Name>
IA_82.cdx

> <SourceTag>
IA_82

> <Gold.Version>
5.2

> <Gold.Id.Protein>
6HGV|6HGV_protein|mol2

> <Gold.Goldscore.Fitness>
40.9473

> <Gold.Goldscore.Internal.Vdw>
-10.1522

> <Gold.Goldscore.Internal.Torsion>
-5.1288

> <Gold.Goldscore.External.Vdw>
30.4164

> <Gold.Goldscore.Internal.HBond>
0.0000

> <Gold.Goldscore.External.HBond>
0.0000

> <Gold.Goldscore.Internal.Correction>
-14.4057

> <Gold.Goldscore.Internal.Vdw.Weighted>
-10.1522

> <Gold.Goldscore.Internal.Torsion.Weighted>
-5.1288

> <Gold.Goldscore.External.Vdw.Weighted>
41.8225

> <Gold.Goldscore.Internal.HBond.Weighted>
0.0000

> <Gold.Goldscore.External.HBond.Weighted>
0.0000

> <Gold.Goldscore.Internal.Correction.Weighted>
-14.4057

> <Gold.Protein.RotatedTorsions>
[ 3781 1176 1175 1172 ] final  179.09 input   60.00 | X-H torsion
[ 3847 1247 1246 1244 ] final  120.30 input   60.00 | X-H torsion
[ 4507 1931 1930 1928 ] final   37.50 input   60.00 | X-H torsion
[ 3677 1070 1069 1066 ] final -168.84 input   60.00 | X-H torsion
[ 3525  925  924  922 ] final  -32.92 input   59.99 | X-H torsion
[ 4531 1957 1955 1953 ] final   33.27 input   60.00 | X-H torsion

> <Gold.Protein.ActiveResidues>
 PHE267  PRO268  MET310  ASP335  TRP336  MET339  TYR343  THR360  PRO361  ILE363 
 PRO371  SER374  ILE375  ASN378  PHE381  TYR383  GLN384  PHE387  LEU408  LEU417 
 MET419  LEU428  TYR466  MET469  ASN472  ASP496  VAL498  LEU499  MET503  HIS524 
 TRP525 

> <Gold.Protein.RotatedAtoms>
   -3.7700  -29.5163  -29.9750 H   0  0  0  0  0  0  0  0  0  0  0  0  # atno 3525 bound_to 925 
  -11.0956  -22.9253  -31.2592 H   0  0  0  0  0  0  0  0  0  0  0  0  # atno 3677 bound_to 1070
   -9.2753  -36.5278  -32.8477 H   0  0  0  0  0  0  0  0  0  0  0  0  # atno 3781 bound_to 1176
  -14.3144  -28.2848  -37.7683 H   0  0  0  0  0  0  0  0  0  0  0  0  # atno 3847 bound_to 1247
  -12.8504  -24.9647  -38.8109 H   0  0  0  0  0  0  0  0  0  0  0  0  # atno 4507 bound_to 1931
   -3.0869  -32.9837  -36.6537 H   0  0  0  0  0  0  0  0  0  0  0  0  # atno 4531 bound_to 1957
  -10.6185  -37.4442  -32.7855 LP  0  0  0  0  0  0  0  0  0  0  0  0  # atno 5205 bound_to 1176
  -10.2223  -36.6636  -34.1640 LP  0  0  0  0  0  0  0  0  0  0  0  0  # atno 5206 bound_to 1176
  -15.7076  -28.7235  -37.0509 LP  0  0  0  0  0  0  0  0  0  0  0  0  # atno 5215 bound_to 1247
  -15.5485  -27.2274  -37.6857 LP  0  0  0  0  0  0  0  0  0  0  0  0  # atno 5216 bound_to 1247
  -13.6921  -24.9950  -40.2032 LP  0  0  0  0  0  0  0  0  0  0  0  0  # atno 5217 bound_to 1931
  -12.6538  -23.7717  -39.9000 LP  0  0  0  0  0  0  0  0  0  0  0  0  # atno 5218 bound_to 1931
  -12.2953  -22.3313  -30.3340 LP  0  0  0  0  0  0  0  0  0  0  0  0  # atno 5224 bound_to 1070
  -12.4692  -23.7775  -31.0722 LP  0  0  0  0  0  0  0  0  0  0  0  0  # atno 5225 bound_to 1070

$$$$
IA_67.cdx|SeH_inactivess_minimized|sdf|146|dock1
  -GOLD-   4172122 33D 1   1.00000     0.00000

 40 40  0  0  0  0  0  0  0  0  1 V2000
  -20.6161  -23.7210  -39.1950 C   0  0  0  0  0  0  0  0  0  0  0  0
  -13.9267  -25.6152  -36.4250 C   0  0  0  0  0  0  0  0  0  0  0  0
  -10.1168  -26.5141  -33.6482 C   0  0  0  0  0  0  0  0  0  0  0  0
  -11.0111  -25.3005  -33.8881 C   0  0  0  0  0  0  0  0  0  0  0  0
  -10.5192  -27.6996  -34.5211 C   0  0  0  0  0  0  0  0  0  0  0  0
  -11.0622  -24.9233  -35.3693 C   0  0  0  0  0  0  0  0  0  0  0  0
  -10.5711  -27.3168  -36.0009 C   0  0  0  0  0  0  0  0  0  0  0  0
  -11.4650  -26.0988  -36.2697 C   0  0  0  0  0  0  0  0  0  0  0  0
  -20.0967  -23.5358  -37.8334 C   0  0  0  0  0  0  0  0  0  0  0  0
  -19.1011  -24.6278  -37.4391 C   0  0  0  0  0  0  0  0  0  0  0  0
  -17.8205  -24.5985  -38.2811 C   0  0  0  0  0  0  0  0  0  0  0  0
  -16.8417  -25.6901  -37.8365 C   0  0  0  0  0  0  0  0  0  0  0  0
  -16.4159  -25.5377  -36.3800 C   0  0  0  0  0  0  0  0  0  0  0  0
  -21.0277  -23.8685  -40.2698 N   0  0  0  0  0  0  0  0  0  0  0  0
  -12.8716  -26.4445  -36.0530 N   0  0  0  0  0  0  0  0  0  0  0  0
  -15.1556  -26.1861  -36.1037 N   0  0  0  0  0  0  0  0  0  0  0  0
  -13.7923  -24.5195  -36.9681 O   0  0  0  0  0  0  0  0  0  0  0  0
   -9.0718  -26.2471  -33.8479 H   0  0  0  0  0  0  0  0  0  0  0  0
  -10.1736  -26.8047  -32.5908 H   0  0  0  0  0  0  0  0  0  0  0  0
  -12.0235  -25.5113  -33.5274 H   0  0  0  0  0  0  0  0  0  0  0  0
  -10.6347  -24.4489  -33.3088 H   0  0  0  0  0  0  0  0  0  0  0  0
   -9.8014  -28.5168  -34.3817 H   0  0  0  0  0  0  0  0  0  0  0  0
  -11.4980  -28.0755  -34.2042 H   0  0  0  0  0  0  0  0  0  0  0  0
  -11.7700  -24.0874  -35.5083 H   0  0  0  0  0  0  0  0  0  0  0  0
  -10.0783  -24.5331  -35.6799 H   0  0  0  0  0  0  0  0  0  0  0  0
   -9.5480  -27.1176  -36.3617 H   0  0  0  0  0  0  0  0  0  0  0  0
  -10.9301  -28.1798  -36.5885 H   0  0  0  0  0  0  0  0  0  0  0  0
  -11.3841  -25.8067  -37.3136 H   0  0  0  0  0  0  0  0  0  0  0  0
  -20.9251  -23.5058  -37.1168 H   0  0  0  0  0  0  0  0  0  0  0  0
  -19.5934  -22.5635  -37.7766 H   0  0  0  0  0  0  0  0  0  0  0  0
  -19.5883  -25.6022  -37.5696 H   0  0  0  0  0  0  0  0  0  0  0  0
  -18.8465  -24.5380  -36.3756 H   0  0  0  0  0  0  0  0  0  0  0  0
  -17.3348  -23.6198  -38.1916 H   0  0  0  0  0  0  0  0  0  0  0  0
  -18.0789  -24.7370  -39.3376 H   0  0  0  0  0  0  0  0  0  0  0  0
  -17.3178  -26.6704  -37.9597 H   0  0  0  0  0  0  0  0  0  0  0  0
  -15.9568  -25.6766  -38.4846 H   0  0  0  0  0  0  0  0  0  0  0  0
  -17.1615  -25.9960  -35.7224 H   0  0  0  0  0  0  0  0  0  0  0  0
  -16.3191  -24.4834  -36.1024 H   0  0  0  0  0  0  0  0  0  0  0  0
  -13.0881  -27.3324  -35.6098 H   0  0  0  0  0  0  0  0  0  0  0  0
  -15.1713  -27.1167  -35.6981 H   0  0  0  0  0  0  0  0  0  0  0  0
  1  9  1  0  0  0  0
  1 14  3  0  0  0  0
  2 15  1  0  0  0  0
  2 16  1  0  0  0  0
  2 17  2  0  0  0  0
  3  4  1  0  0  0  0
  3  5  1  0  0  0  0
  4  6  1  0  0  0  0
  5  7  1  0  0  0  0
  6  8  1  0  0  0  0
  7  8  1  0  0  0  0
  8 15  1  0  0  0  0
  9 10  1  0  0  0  0
 10 11  1  0  0  0  0
 11 12  1  0  0  0  0
 12 13  1  0  0  0  0
 13 16  1  0  0  0  0
  3 18  1  0  0  0  0
  3 19  1  0  0  0  0
  4 20  1  0  0  0  0
  4 21  1  0  0  0  0
  5 22  1  0  0  0  0
  5 23  1  0  0  0  0
  6 24  1  0  0  0  0
  6 25  1  0  0  0  0
  7 26  1  0  0  0  0
  7 27  1  0  0  0  0
  8 28  1  0  0  0  0
  9 29  1  0  0  0  0
  9 30  1  0  0  0  0
 10 31  1  0  0  0  0
 10 32  1  0  0  0  0
 11 33  1  0  0  0  0
 11 34  1  0  0  0  0
 12 35  1  0  0  0  0
 12 36  1  0  0  0  0
 13 37  1  0  0  0  0
 13 38  1  0  0  0  0
 15 39  1  0  0  0  0
 16 40  1  0  0  0  0
M  END
> <Name>
IA_67.cdx

> <SourceTag>
IA_67

> <Gold.Version>
5.2

> <Gold.Id.Protein>
6HGV|6HGV_protein|mol2

> <Gold.Goldscore.Fitness>
55.2551

> <Gold.Goldscore.Internal.Vdw>
-2.3969

> <Gold.Goldscore.Internal.Torsion>
-2.2349

> <Gold.Goldscore.External.Vdw>
41.3115

> <Gold.Goldscore.Internal.HBond>
0.0000

> <Gold.Goldscore.External.HBond>
0.0812

> <Gold.Goldscore.Internal.Correction>
-3.0024

> <Gold.Goldscore.Hbonds>
donor molecule, donor type, donor heavy atom, donor atom, acceptor molecule, acceptor atom, score
      P1  H  1931  4507       L1    17  0.04

> <Gold.Goldscore.Internal.Vdw.Weighted>
-2.3969

> <Gold.Goldscore.Internal.Torsion.Weighted>
-2.2349

> <Gold.Goldscore.External.Vdw.Weighted>
56.8032

> <Gold.Goldscore.Internal.HBond.Weighted>
0.0000

> <Gold.Goldscore.External.HBond.Weighted>
0.0812

> <Gold.Goldscore.Internal.Correction.Weighted>
-3.0024

> <Gold.Protein.RotatedTorsions>
[ 3781 1176 1175 1172 ] final   36.44 input   60.00 | X-H torsion
[ 3847 1247 1246 1244 ] final  138.37 input   60.00 | X-H torsion
[ 4507 1931 1930 1928 ] final   13.98 input   60.00 | X-H torsion
[ 3677 1070 1069 1066 ] final  -71.24 input   60.00 | X-H torsion
[ 3525  925  924  922 ] final  101.95 input   59.99 | X-H torsion
[ 4531 1957 1955 1953 ] final  177.96 input   60.00 | X-H torsion

> <Gold.Protein.ActiveResidues>
 PHE267  PRO268  MET310  ASP335  TRP336  MET339  TYR343  THR360  PRO361  ILE363 
 PRO371  SER374  ILE375  ASN378  PHE381  TYR383  GLN384  PHE387  LEU408  LEU417 
 MET419  LEU428  TYR466  MET469  ASN472  ASP496  VAL498  LEU499  MET503  HIS524 
 TRP525 

> <Gold.Protein.RotatedAtoms>
   -2.2635  -30.1184  -30.5728 H   0  0  0  0  0  0  0  0  0  0  0  0  # atno 3525 bound_to 925 
  -12.1626  -23.8452  -31.2585 H   0  0  0  0  0  0  0  0  0  0  0  0  # atno 3677 bound_to 1070
  -10.7786  -37.4297  -33.1176 H   0  0  0  0  0  0  0  0  0  0  0  0  # atno 3781 bound_to 1176
  -14.3293  -28.0086  -37.8681 H   0  0  0  0  0  0  0  0  0  0  0  0  # atno 3847 bound_to 1247
  -13.1057  -25.2125  -38.9489 H   0  0  0  0  0  0  0  0  0  0  0  0  # atno 4507 bound_to 1931
   -1.5238  -33.7861  -36.9647 H   0  0  0  0  0  0  0  0  0  0  0  0  # atno 4531 bound_to 1957
   -9.9086  -36.4753  -34.1077 LP  0  0  0  0  0  0  0  0  0  0  0  0  # atno 5205 bound_to 1176
   -9.4183  -36.7242  -32.5701 LP  0  0  0  0  0  0  0  0  0  0  0  0  # atno 5206 bound_to 1176
  -15.4597  -28.8812  -37.0879 LP  0  0  0  0  0  0  0  0  0  0  0  0  # atno 5215 bound_to 1247
  -15.7815  -27.3478  -37.5482 LP  0  0  0  0  0  0  0  0  0  0  0  0  # atno 5216 bound_to 1247
  -13.5947  -24.6852  -40.4086 LP  0  0  0  0  0  0  0  0  0  0  0  0  # atno 5217 bound_to 1931
  -12.4941  -23.8320  -39.5557 LP  0  0  0  0  0  0  0  0  0  0  0  0  # atno 5218 bound_to 1931
  -11.1172  -22.6119  -31.0731 LP  0  0  0  0  0  0  0  0  0  0  0  0  # atno 5224 bound_to 1070
  -12.5727  -22.5705  -30.3339 LP  0  0  0  0  0  0  0  0  0  0  0  0  # atno 5225 bound_to 1070

$$$$
IA_70.cdx|SeH_inactivess_minimized|sdf|148|dock6
  -GOLD-   4172122 63D 1   1.00000     0.00000

 14 13  0  0  0  0  0  0  0  0  1 V2000
  -11.1991  -25.8305  -36.4982 C   0  0  0  0  0  0  0  0  0  0  0  0
  -11.6986  -24.8554  -34.2503 C   0  0  0  0  0  0  0  0  0  0  0  0
   -9.6940  -26.2726  -34.5464 C   0  0  0  0  0  0  0  0  0  0  0  0
  -12.2076  -25.0196  -36.9802 N   0  0  0  0  0  0  0  0  0  0  0  0
  -10.8760  -25.6583  -35.1452 N   0  0  0  0  0  0  0  0  0  0  0  0
  -10.6480  -26.6506  -37.2380 O   0  0  0  0  0  0  0  0  0  0  0  0
  -11.6215  -23.7980  -34.5165 H   0  0  0  0  0  0  0  0  0  0  0  0
  -11.3675  -24.9830  -33.2161 H   0  0  0  0  0  0  0  0  0  0  0  0
  -12.7458  -25.1612  -34.3233 H   0  0  0  0  0  0  0  0  0  0  0  0
   -9.9926  -27.0028  -33.7897 H   0  0  0  0  0  0  0  0  0  0  0  0
   -9.0705  -25.5096  -34.0725 H   0  0  0  0  0  0  0  0  0  0  0  0
   -9.1033  -26.7816  -35.3128 H   0  0  0  0  0  0  0  0  0  0  0  0
  -12.4923  -25.0909  -37.9495 H   0  0  0  0  0  0  0  0  0  0  0  0
  -12.6645  -24.3523  -36.3669 H   0  0  0  0  0  0  0  0  0  0  0  0
  1  4  1  0  0  0  0
  1  5  1  0  0  0  0
  1  6  2  0  0  0  0
  2  5  1  0  0  0  0
  3  5  1  0  0  0  0
  2  7  1  0  0  0  0
  2  8  1  0  0  0  0
  2  9  1  0  0  0  0
  3 10  1  0  0  0  0
  3 11  1  0  0  0  0
  3 12  1  0  0  0  0
  4 13  1  0  0  0  0
  4 14  1  0  0  0  0
M  END
> <Name>
IA_70.cdx

> <SourceTag>
IA_70

> <Gold.Version>
5.2

> <Gold.Id.Protein>
6HGV|6HGV_protein|mol2

> <Gold.Goldscore.Fitness>
31.5020

> <Gold.Goldscore.Internal.Vdw>
-4.8442

> <Gold.Goldscore.Internal.Torsion>
-2.0979

> <Gold.Goldscore.External.Vdw>
18.2898

> <Gold.Goldscore.Internal.HBond>
0.0000

> <Gold.Goldscore.External.HBond>
6.5852

> <Gold.Goldscore.Internal.Correction>
-6.7104

> <Gold.Goldscore.Hbonds>
donor molecule, donor type, donor heavy atom, donor atom, acceptor molecule, acceptor atom, score
      L1  H     4    13       P1  1931  0.98
      L1  H     4    14       P1   853  0.77

> <Gold.Goldscore.Internal.Vdw.Weighted>
-4.8442

> <Gold.Goldscore.Internal.Torsion.Weighted>
-2.0979

> <Gold.Goldscore.External.Vdw.Weighted>
25.1485

> <Gold.Goldscore.Internal.HBond.Weighted>
0.0000

> <Gold.Goldscore.External.HBond.Weighted>
6.5852

> <Gold.Goldscore.Internal.Correction.Weighted>
-6.7104

> <Gold.Protein.RotatedTorsions>
[ 3781 1176 1175 1172 ] final  167.24 input   60.00 | X-H torsion
[ 3847 1247 1246 1244 ] final  165.06 input   60.00 | X-H torsion
[ 4507 1931 1930 1928 ] final  -90.78 input   60.00 | X-H torsion
[ 3677 1070 1069 1066 ] final -150.57 input   60.00 | X-H torsion
[ 3525  925  924  922 ] final  -56.14 input   59.99 | X-H torsion
[ 4531 1957 1955 1953 ] final -140.59 input   60.00 | X-H torsion

> <Gold.Protein.ActiveResidues>
 PHE267  PRO268  MET310  ASP335  TRP336  MET339  TYR343  THR360  PRO361  ILE363 
 PRO371  SER374  ILE375  ASN378  PHE381  TYR383  GLN384  PHE387  LEU408  LEU417 
 MET419  LEU428  TYR466  MET469  ASN472  ASP496  VAL498  LEU499  MET503  HIS524 
 TRP525 

> <Gold.Protein.RotatedAtoms>
   -3.7263  -29.5693  -29.6044 H   0  0  0  0  0  0  0  0  0  0  0  0  # atno 3525 bound_to 925 
  -11.1699  -23.1895  -31.3731 H   0  0  0  0  0  0  0  0  0  0  0  0  # atno 3677 bound_to 1070
   -9.3381  -36.6271  -32.6944 H   0  0  0  0  0  0  0  0  0  0  0  0  # atno 3781 bound_to 1176
  -14.5038  -27.6213  -37.9478 H   0  0  0  0  0  0  0  0  0  0  0  0  # atno 3847 bound_to 1247
  -13.6632  -24.8903  -40.2849 H   0  0  0  0  0  0  0  0  0  0  0  0  # atno 4507 bound_to 1931
   -1.2606  -33.1792  -37.0042 H   0  0  0  0  0  0  0  0  0  0  0  0  # atno 4531 bound_to 1957
  -10.7188  -37.4487  -32.9521 LP  0  0  0  0  0  0  0  0  0  0  0  0  # atno 5205 bound_to 1176
  -10.0588  -36.5590  -34.1518 LP  0  0  0  0  0  0  0  0  0  0  0  0  # atno 5206 bound_to 1176
  -15.0523  -28.9667  -37.2151 LP  0  0  0  0  0  0  0  0  0  0  0  0  # atno 5215 bound_to 1247
  -16.0132  -27.6524  -37.3407 LP  0  0  0  0  0  0  0  0  0  0  0  0  # atno 5216 bound_to 1247
  -12.5881  -23.7777  -39.7808 LP  0  0  0  0  0  0  0  0  0  0  0  0  # atno 5217 bound_to 1931
  -12.9392  -25.0639  -38.8379 LP  0  0  0  0  0  0  0  0  0  0  0  0  # atno 5218 bound_to 1931
  -12.0285  -22.2110  -30.3967 LP  0  0  0  0  0  0  0  0  0  0  0  0  # atno 5224 bound_to 1070
  -12.6611  -23.6317  -30.8948 LP  0  0  0  0  0  0  0  0  0  0  0  0  # atno 5225 bound_to 1070

$$$$
IA_35|SeH_inactivess_minimized|sdf|121|dock4
  -GOLD-   4172121223D 1   1.00000     0.00000

 43 43  0  0  0  0  0  0  0  0  1 V2000
  -17.2918  -25.1254  -35.6657 C   0  0  0  0  0  0  0  0  0  0  0  0
  -15.9236  -24.9730  -35.8907 C   0  0  0  0  0  0  0  0  0  0  0  0
  -18.2029  -24.8240  -36.6781 C   0  0  0  0  0  0  0  0  0  0  0  0
  -16.3777  -24.2169  -38.1400 C   0  0  0  0  0  0  0  0  0  0  0  0
  -15.4665  -24.5187  -37.1279 C   0  0  0  0  0  0  0  0  0  0  0  0
  -17.7458  -24.3695  -37.9152 C   0  0  0  0  0  0  0  0  0  0  0  0
   -9.5089  -27.6757  -34.5155 C   0  0  0  0  0  0  0  0  0  0  0  0
  -13.3466  -25.4380  -36.8897 C   0  0  0  0  0  0  0  0  0  0  0  0
   -3.8925  -32.4616  -34.8643 C   0  0  0  0  0  0  0  0  0  0  0  0
   -9.7417  -26.2254  -34.1582 C   0  0  0  0  0  0  0  0  0  0  0  0
   -4.3381  -31.0090  -34.8099 C   0  0  0  0  0  0  0  0  0  0  0  0
  -11.0411  -25.6916  -34.7522 C   0  0  0  0  0  0  0  0  0  0  0  0
   -5.8499  -30.8937  -34.6172 C   0  0  0  0  0  0  0  0  0  0  0  0
   -6.2896  -29.4337  -34.5328 C   0  0  0  0  0  0  0  0  0  0  0  0
  -11.1366  -25.9762  -36.2439 C   0  0  0  0  0  0  0  0  0  0  0  0
   -7.7896  -29.2853  -34.7444 C   0  0  0  0  0  0  0  0  0  0  0  0
  -10.3784  -28.4688  -34.8493 O   0  0  0  0  0  0  0  0  0  0  0  0
  -13.7722  -26.5446  -36.5832 O   0  0  0  0  0  0  0  0  0  0  0  0
  -14.0959  -24.3654  -37.3530 O   0  0  0  0  0  0  0  0  0  0  0  0
   -8.1749  -27.9495  -34.4042 O   0  0  0  0  0  0  0  0  0  0  0  0
  -12.0372  -25.0476  -36.8318 O   0  0  0  0  0  0  0  0  0  0  0  0
  -18.8707  -23.9969  -39.1629 Cl  0  0  0  0  0  0  0  0  0  0  0  0
  -17.6465  -25.4790  -34.7021 H   0  0  0  0  0  0  0  0  0  0  0  0
  -15.2184  -25.2089  -35.0984 H   0  0  0  0  0  0  0  0  0  0  0  0
  -19.2661  -24.9472  -36.4886 H   0  0  0  0  0  0  0  0  0  0  0  0
  -16.0130  -23.8625  -39.1014 H   0  0  0  0  0  0  0  0  0  0  0  0
   -2.8061  -32.5346  -34.9786 H   0  0  0  0  0  0  0  0  0  0  0  0
   -4.1788  -32.9941  -33.9519 H   0  0  0  0  0  0  0  0  0  0  0  0
   -4.3583  -32.9693  -35.7146 H   0  0  0  0  0  0  0  0  0  0  0  0
   -9.7741  -26.1437  -33.0659 H   0  0  0  0  0  0  0  0  0  0  0  0
   -8.8953  -25.6408  -34.5357 H   0  0  0  0  0  0  0  0  0  0  0  0
   -4.0412  -30.5066  -35.7379 H   0  0  0  0  0  0  0  0  0  0  0  0
   -3.8186  -30.5042  -33.9870 H   0  0  0  0  0  0  0  0  0  0  0  0
  -11.9050  -26.1341  -34.2397 H   0  0  0  0  0  0  0  0  0  0  0  0
  -11.1235  -24.6105  -34.5804 H   0  0  0  0  0  0  0  0  0  0  0  0
   -6.3654  -31.3851  -35.4514 H   0  0  0  0  0  0  0  0  0  0  0  0
   -6.1445  -31.4196  -33.7007 H   0  0  0  0  0  0  0  0  0  0  0  0
   -5.7567  -28.8328  -35.2801 H   0  0  0  0  0  0  0  0  0  0  0  0
   -6.0167  -29.0104  -33.5581 H   0  0  0  0  0  0  0  0  0  0  0  0
  -10.1598  -25.8665  -36.7258 H   0  0  0  0  0  0  0  0  0  0  0  0
  -11.5123  -26.9881  -36.4254 H   0  0  0  0  0  0  0  0  0  0  0  0
   -8.3450  -29.9808  -34.1071 H   0  0  0  0  0  0  0  0  0  0  0  0
   -8.0566  -29.4690  -35.7899 H   0  0  0  0  0  0  0  0  0  0  0  0
  1  2  1  0  0  0  0
  1  3  2  0  0  0  0
  2  5  2  0  0  0  0
  3  6  1  0  0  0  0
  4  5  1  0  0  0  0
  4  6  2  0  0  0  0
  5 19  1  0  0  0  0
  6 22  1  0  0  0  0
  7 10  1  0  0  0  0
  7 17  2  0  0  0  0
  7 20  1  0  0  0  0
  8 18  2  0  0  0  0
  8 19  1  0  0  0  0
  8 21  1  0  0  0  0
  9 11  1  0  0  0  0
 10 12  1  0  0  0  0
 11 13  1  0  0  0  0
 12 15  1  0  0  0  0
 13 14  1  0  0  0  0
 14 16  1  0  0  0  0
 15 21  1  0  0  0  0
 16 20  1  0  0  0  0
  1 23  1  0  0  0  0
  2 24  1  0  0  0  0
  3 25  1  0  0  0  0
  4 26  1  0  0  0  0
  9 27  1  0  0  0  0
  9 28  1  0  0  0  0
  9 29  1  0  0  0  0
 10 30  1  0  0  0  0
 10 31  1  0  0  0  0
 11 32  1  0  0  0  0
 11 33  1  0  0  0  0
 12 34  1  0  0  0  0
 12 35  1  0  0  0  0
 13 36  1  0  0  0  0
 13 37  1  0  0  0  0
 14 38  1  0  0  0  0
 14 39  1  0  0  0  0
 15 40  1  0  0  0  0
 15 41  1  0  0  0  0
 16 42  1  0  0  0  0
 16 43  1  0  0  0  0
M  END
> <Name>
IA_35

> <SourceTag>
IA_35

> <Gold.Version>
5.2

> <Gold.Id.Protein>
6HGV|6HGV_protein|mol2

> <Gold.Goldscore.Fitness>
61.6804

> <Gold.Goldscore.Internal.Vdw>
-5.3122

> <Gold.Goldscore.Internal.Torsion>
-6.6779

> <Gold.Goldscore.External.Vdw>
48.9721

> <Gold.Goldscore.Internal.HBond>
0.0000

> <Gold.Goldscore.External.HBond>
0.1164

> <Gold.Goldscore.Internal.Correction>
-6.2174

> <Gold.Goldscore.Hbonds>
donor molecule, donor type, donor heavy atom, donor atom, acceptor molecule, acceptor atom, score
      P1  H  1256  3854       L1    17  0.04
      P1  H  1247  3847       L1    18  0.02

> <Gold.Goldscore.Internal.Vdw.Weighted>
-5.3122

> <Gold.Goldscore.Internal.Torsion.Weighted>
-6.6779

> <Gold.Goldscore.External.Vdw.Weighted>
67.3366

> <Gold.Goldscore.Internal.HBond.Weighted>
0.0000

> <Gold.Goldscore.External.HBond.Weighted>
0.1164

> <Gold.Goldscore.Internal.Correction.Weighted>
-6.2174

> <Gold.Protein.RotatedTorsions>
[ 3781 1176 1175 1172 ] final   36.55 input   60.00 | X-H torsion
[ 3847 1247 1246 1244 ] final  177.94 input   60.00 | X-H torsion
[ 4507 1931 1930 1928 ] final  -59.19 input   60.00 | X-H torsion
[ 3677 1070 1069 1066 ] final -115.45 input   60.00 | X-H torsion
[ 3525  925  924  922 ] final   21.92 input   59.99 | X-H torsion
[ 4531 1957 1955 1953 ] final  -89.81 input   60.00 | X-H torsion

> <Gold.Protein.ActiveResidues>
 PHE267  PRO268  MET310  ASP335  TRP336  MET339  TYR343  THR360  PRO361  ILE363 
 PRO371  SER374  ILE375  ASN378  PHE381  TYR383  GLN384  PHE387  LEU408  LEU417 
 MET419  LEU428  TYR466  MET469  ASN472  ASP496  VAL498  LEU499  MET503  HIS524 
 TRP525 

> <Gold.Protein.RotatedAtoms>
   -3.3536  -29.6296  -30.7215 H   0  0  0  0  0  0  0  0  0  0  0  0  # atno 3525 bound_to 925 
  -11.5207  -23.6258  -31.4491 H   0  0  0  0  0  0  0  0  0  0  0  0  # atno 3677 bound_to 1070
  -10.7781  -37.4300  -33.1159 H   0  0  0  0  0  0  0  0  0  0  0  0  # atno 3781 bound_to 1176
  -14.6437  -27.4649  -37.9527 H   0  0  0  0  0  0  0  0  0  0  0  0  # atno 3847 bound_to 1247
  -13.6798  -25.2305  -39.9056 H   0  0  0  0  0  0  0  0  0  0  0  0  # atno 4507 bound_to 1931
   -1.5595  -32.4374  -36.9346 H   0  0  0  0  0  0  0  0  0  0  0  0  # atno 4531 bound_to 1957
   -9.9101  -36.4761  -34.1083 LP  0  0  0  0  0  0  0  0  0  0  0  0  # atno 5205 bound_to 1176
   -9.4173  -36.7231  -32.5712 LP  0  0  0  0  0  0  0  0  0  0  0  0  # atno 5206 bound_to 1176
  -14.8608  -28.9399  -37.3005 LP  0  0  0  0  0  0  0  0  0  0  0  0  # atno 5215 bound_to 1247
  -16.0638  -27.8367  -37.2504 LP  0  0  0  0  0  0  0  0  0  0  0  0  # atno 5216 bound_to 1247
  -12.8796  -23.8441  -40.1981 LP  0  0  0  0  0  0  0  0  0  0  0  0  # atno 5217 bound_to 1931
  -12.6309  -24.6549  -38.8026 LP  0  0  0  0  0  0  0  0  0  0  0  0  # atno 5218 bound_to 1931
  -11.5177  -22.2098  -30.6472 LP  0  0  0  0  0  0  0  0  0  0  0  0  # atno 5224 bound_to 1070
  -12.8187  -23.1936  -30.5678 LP  0  0  0  0  0  0  0  0  0  0  0  0  # atno 5225 bound_to 1070

$$$$
IA_179.cdx|SeH_inactivess_minimized|sdf|80|dock3
  -GOLD-   4172120223D 1   1.00000     0.00000

 12 12  0  0  0  0  0  0  0  0  1 V2000
  -11.5722  -25.4096  -36.2022 C   0  0  0  0  0  0  0  0  0  0  0  0
  -10.0405  -26.4734  -34.7693 C   0  0  0  0  0  0  0  0  0  0  0  0
  -10.7491  -25.3704  -33.9994 C   0  0  0  0  0  0  0  0  0  0  0  0
  -10.5439  -26.3589  -36.1141 N   0  0  0  0  0  0  0  0  0  0  0  0
  -11.7174  -24.8443  -34.9273 N   0  0  0  0  0  0  0  0  0  0  0  0
  -12.2196  -25.1282  -37.2015 O   0  0  0  0  0  0  0  0  0  0  0  0
   -8.9537  -26.3546  -34.7723 H   0  0  0  0  0  0  0  0  0  0  0  0
  -10.2953  -27.4672  -34.3893 H   0  0  0  0  0  0  0  0  0  0  0  0
  -11.2592  -25.7401  -33.1060 H   0  0  0  0  0  0  0  0  0  0  0  0
  -10.0662  -24.5630  -33.7192 H   0  0  0  0  0  0  0  0  0  0  0  0
  -10.2316  -26.9281  -36.8941 H   0  0  0  0  0  0  0  0  0  0  0  0
  -12.3904  -24.1182  -34.7040 H   0  0  0  0  0  0  0  0  0  0  0  0
  1  4  1  0  0  0  0
  1  5  1  0  0  0  0
  1  6  2  0  0  0  0
  2  3  1  0  0  0  0
  2  4  1  0  0  0  0
  3  5  1  0  0  0  0
  2  7  1  0  0  0  0
  2  8  1  0  0  0  0
  3  9  1  0  0  0  0
  3 10  1  0  0  0  0
  4 11  1  0  0  0  0
  5 12  1  0  0  0  0
M  END
> <Name>
IA_179.cdx

> <SourceTag>
IA_179

> <Gold.Version>
5.2

> <Gold.Id.Protein>
6HGV|6HGV_protein|mol2

> <Gold.Goldscore.Fitness>
26.9973

> <Gold.Goldscore.Internal.Vdw>
-0.0000

> <Gold.Goldscore.Internal.Torsion>
-0.0000

> <Gold.Goldscore.External.Vdw>
17.4802

> <Gold.Goldscore.Internal.HBond>
0.0000

> <Gold.Goldscore.External.HBond>
2.9621

> <Gold.Goldscore.Internal.Correction>
0.0000

> <Gold.Goldscore.Hbonds>
donor molecule, donor type, donor heavy atom, donor atom, acceptor molecule, acceptor atom, score
      P1  H  1931  4507       L1     6  1.00
      L1  H     5    12       P1   853  0.16

> <Gold.Goldscore.Internal.Vdw.Weighted>
-0.0000

> <Gold.Goldscore.Internal.Torsion.Weighted>
-0.0000

> <Gold.Goldscore.External.Vdw.Weighted>
24.0353

> <Gold.Goldscore.Internal.HBond.Weighted>
0.0000

> <Gold.Goldscore.External.HBond.Weighted>
2.9621

> <Gold.Goldscore.Internal.Correction.Weighted>
0.0000

> <Gold.Protein.RotatedTorsions>
[ 3781 1176 1175 1172 ] final  173.88 input   60.00 | X-H torsion
[ 3847 1247 1246 1244 ] final  155.43 input   60.00 | X-H torsion
[ 4507 1931 1930 1928 ] final   49.58 input   60.00 | X-H torsion
[ 3677 1070 1069 1066 ] final -131.39 input   60.00 | X-H torsion
[ 3525  925  924  922 ] final   67.53 input   59.99 | X-H torsion
[ 4531 1957 1955 1953 ] final  -45.00 input   60.00 | X-H torsion

> <Gold.Protein.ActiveResidues>
 PHE267  PRO268  MET310  ASP335  TRP336  MET339  TYR343  THR360  PRO361  ILE363 
 PRO371  SER374  ILE375  ASN378  PHE381  TYR383  GLN384  PHE387  LEU408  LEU417 
 MET419  LEU428  TYR466  MET469  ASN472  ASP496  VAL498  LEU499  MET503  HIS524 
 TRP525 

> <Gold.Protein.RotatedAtoms>
   -2.6944  -29.9054  -30.8482 H   0  0  0  0  0  0  0  0  0  0  0  0  # atno 3525 bound_to 925 
  -11.3324  -23.4473  -31.4400 H   0  0  0  0  0  0  0  0  0  0  0  0  # atno 3677 bound_to 1070
   -9.2990  -36.5699  -32.7777 H   0  0  0  0  0  0  0  0  0  0  0  0  # atno 3781 bound_to 1176
  -14.4212  -27.7538  -37.9295 H   0  0  0  0  0  0  0  0  0  0  0  0  # atno 3847 bound_to 1247
  -12.7305  -24.8093  -38.7928 H   0  0  0  0  0  0  0  0  0  0  0  0  # atno 4507 bound_to 1931
   -2.2187  -32.1962  -36.8051 H   0  0  0  0  0  0  0  0  0  0  0  0  # atno 4531 bound_to 1957
  -10.6660  -37.4492  -32.8567 LP  0  0  0  0  0  0  0  0  0  0  0  0  # atno 5205 bound_to 1176
  -10.1509  -36.6162  -34.1634 LP  0  0  0  0  0  0  0  0  0  0  0  0  # atno 5206 bound_to 1176
  -15.2006  -28.9576  -37.1604 LP  0  0  0  0  0  0  0  0  0  0  0  0  # atno 5215 bound_to 1247
  -15.9480  -27.5280  -37.4139 LP  0  0  0  0  0  0  0  0  0  0  0  0  # atno 5216 bound_to 1247
  -13.7020  -25.1301  -40.0582 LP  0  0  0  0  0  0  0  0  0  0  0  0  # atno 5217 bound_to 1931
  -12.7646  -23.7930  -40.0632 LP  0  0  0  0  0  0  0  0  0  0  0  0  # atno 5218 bound_to 1931
  -11.7405  -22.1716  -30.5158 LP  0  0  0  0  0  0  0  0  0  0  0  0  # atno 5224 bound_to 1070
  -12.7855  -23.4116  -30.7083 LP  0  0  0  0  0  0  0  0  0  0  0  0  # atno 5225 bound_to 1070

$$$$
IA_33.cdx|SeH_inactivess_minimized|sdf|119|dock3
  -GOLD-   4172121183D 1   1.00000     0.00000

 35 35  0  0  0  0  0  0  0  0  1 V2000
  -10.4930  -26.5288  -33.4714 C   0  0  0  0  0  0  0  0  0  0  0  0
  -11.1395  -25.6007  -34.2877 C   0  0  0  0  0  0  0  0  0  0  0  0
   -9.8746  -27.6439  -34.0370 C   0  0  0  0  0  0  0  0  0  0  0  0
  -10.5495  -26.9030  -36.2353 C   0  0  0  0  0  0  0  0  0  0  0  0
  -11.1678  -25.7879  -35.6696 C   0  0  0  0  0  0  0  0  0  0  0  0
   -9.9029  -27.8310  -35.4189 C   0  0  0  0  0  0  0  0  0  0  0  0
  -18.6409  -25.0119  -37.1937 C   0  0  0  0  0  0  0  0  0  0  0  0
  -12.8919  -25.3892  -37.1932 C   0  0  0  0  0  0  0  0  0  0  0  0
  -22.1423  -24.6046  -38.1847 C   0  0  0  0  0  0  0  0  0  0  0  0
  -17.4417  -25.0392  -38.1156 C   0  0  0  0  0  0  0  0  0  0  0  0
  -16.1437  -24.6072  -37.4292 C   0  0  0  0  0  0  0  0  0  0  0  0
  -14.9336  -24.5742  -38.3598 C   0  0  0  0  0  0  0  0  0  0  0  0
  -20.9917  -24.7429  -37.2107 C   0  0  0  0  0  0  0  0  0  0  0  0
  -13.6919  -24.3605  -37.5844 N   0  0  0  0  0  0  0  0  0  0  0  0
  -18.5934  -25.0837  -35.9734 O   0  0  0  0  0  0  0  0  0  0  0  0
  -13.0685  -26.5837  -37.4142 O   0  0  0  0  0  0  0  0  0  0  0  0
  -11.8148  -24.8570  -36.4882 O   0  0  0  0  0  0  0  0  0  0  0  0
  -19.7778  -24.9269  -37.9463 O   0  0  0  0  0  0  0  0  0  0  0  0
   -9.1396  -29.2069  -36.1153 Cl  0  0  0  0  0  0  0  0  0  0  0  0
  -10.4707  -26.3824  -32.3954 H   0  0  0  0  0  0  0  0  0  0  0  0
  -11.6196  -24.7341  -33.8415 H   0  0  0  0  0  0  0  0  0  0  0  0
   -9.3751  -28.3591  -33.3885 H   0  0  0  0  0  0  0  0  0  0  0  0
  -10.5765  -27.0420  -37.3136 H   0  0  0  0  0  0  0  0  0  0  0  0
  -22.1568  -25.4381  -38.8925 H   0  0  0  0  0  0  0  0  0  0  0  0
  -23.0982  -24.5769  -37.6514 H   0  0  0  0  0  0  0  0  0  0  0  0
  -22.0631  -23.6669  -38.7447 H   0  0  0  0  0  0  0  0  0  0  0  0
  -17.3317  -26.0707  -38.4695 H   0  0  0  0  0  0  0  0  0  0  0  0
  -17.6411  -24.3995  -38.9821 H   0  0  0  0  0  0  0  0  0  0  0  0
  -16.2754  -23.6122  -36.9870 H   0  0  0  0  0  0  0  0  0  0  0  0
  -15.9424  -25.2978  -36.6006 H   0  0  0  0  0  0  0  0  0  0  0  0
  -14.8387  -25.5018  -38.9317 H   0  0  0  0  0  0  0  0  0  0  0  0
  -15.0348  -23.7486  -39.0720 H   0  0  0  0  0  0  0  0  0  0  0  0
  -21.1429  -25.6080  -36.5582 H   0  0  0  0  0  0  0  0  0  0  0  0
  -20.8983  -23.8424  -36.5962 H   0  0  0  0  0  0  0  0  0  0  0  0
  -13.4316  -23.4274  -37.3391 H   0  0  0  0  0  0  0  0  0  0  0  0
  1  2  1  0  0  0  0
  1  3  2  0  0  0  0
  2  5  2  0  0  0  0
  3  6  1  0  0  0  0
  4  5  1  0  0  0  0
  4  6  2  0  0  0  0
  5 17  1  0  0  0  0
  6 19  1  0  0  0  0
  7 10  1  0  0  0  0
  7 15  2  0  0  0  0
  7 18  1  0  0  0  0
  8 14  1  0  0  0  0
  8 16  2  0  0  0  0
  8 17  1  0  0  0  0
  9 13  1  0  0  0  0
 10 11  1  0  0  0  0
 11 12  1  0  0  0  0
 12 14  1  0  0  0  0
 13 18  1  0  0  0  0
  1 20  1  0  0  0  0
  2 21  1  0  0  0  0
  3 22  1  0  0  0  0
  4 23  1  0  0  0  0
  9 24  1  0  0  0  0
  9 25  1  0  0  0  0
  9 26  1  0  0  0  0
 10 27  1  0  0  0  0
 10 28  1  0  0  0  0
 11 29  1  0  0  0  0
 11 30  1  0  0  0  0
 12 31  1  0  0  0  0
 12 32  1  0  0  0  0
 13 33  1  0  0  0  0
 13 34  1  0  0  0  0
 14 35  1  0  0  0  0
M  END
> <Name>
IA_33.cdx

> <SourceTag>
IA_33

> <Gold.Version>
5.2

> <Gold.Id.Protein>
6HGV|6HGV_protein|mol2

> <Gold.Goldscore.Fitness>
53.6305

> <Gold.Goldscore.Internal.Vdw>
-0.8392

> <Gold.Goldscore.Internal.Torsion>
-5.1381

> <Gold.Goldscore.External.Vdw>
37.1713

> <Gold.Goldscore.Internal.HBond>
0.0000

> <Gold.Goldscore.External.HBond>
4.9721

> <Gold.Goldscore.Internal.Correction>
-3.5253

> <Gold.Goldscore.Hbonds>
donor molecule, donor type, donor heavy atom, donor atom, acceptor molecule, acceptor atom, score
      P1  H  1247  3847       L1    16  0.35
      L1  H    14    35       P1   854  0.71

> <Gold.Goldscore.Internal.Vdw.Weighted>
-0.8392

> <Gold.Goldscore.Internal.Torsion.Weighted>
-5.1381

> <Gold.Goldscore.External.Vdw.Weighted>
51.1105

> <Gold.Goldscore.Internal.HBond.Weighted>
0.0000

> <Gold.Goldscore.External.HBond.Weighted>
4.9721

> <Gold.Goldscore.Internal.Correction.Weighted>
-3.5253

> <Gold.Protein.RotatedTorsions>
[ 3781 1176 1175 1172 ] final  -39.13 input   60.00 | X-H torsion
[ 3847 1247 1246 1244 ] final  166.56 input   60.00 | X-H torsion
[ 4507 1931 1930 1928 ] final -156.60 input   60.00 | X-H torsion
[ 3677 1070 1069 1066 ] final -117.44 input   60.00 | X-H torsion
[ 3525  925  924  922 ] final  -22.71 input   59.99 | X-H torsion
[ 4531 1957 1955 1953 ] final   64.27 input   60.00 | X-H torsion

> <Gold.Protein.ActiveResidues>
 PHE267  PRO268  MET310  ASP335  TRP336  MET339  TYR343  THR360  PRO361  ILE363 
 PRO371  SER374  ILE375  ASN378  PHE381  TYR383  GLN384  PHE387  LEU408  LEU417 
 MET419  LEU428  TYR466  MET469  ASN472  ASP496  VAL498  LEU499  MET503  HIS524 
 TRP525 

> <Gold.Protein.RotatedAtoms>
   -3.7449  -29.5122  -30.1396 H   0  0  0  0  0  0  0  0  0  0  0  0  # atno 3525 bound_to 925 
  -11.4951  -23.6059  -31.4504 H   0  0  0  0  0  0  0  0  0  0  0  0  # atno 3677 bound_to 1070
  -10.4933  -36.8781  -34.0822 H   0  0  0  0  0  0  0  0  0  0  0  0  # atno 3781 bound_to 1176
  -14.5184  -27.6017  -37.9496 H   0  0  0  0  0  0  0  0  0  0  0  0  # atno 3847 bound_to 1247
  -13.1257  -24.0338  -40.3954 H   0  0  0  0  0  0  0  0  0  0  0  0  # atno 4507 bound_to 1931
   -3.0335  -33.4809  -36.6724 H   0  0  0  0  0  0  0  0  0  0  0  0  # atno 4531 bound_to 1957
   -9.2410  -36.3814  -33.1695 LP  0  0  0  0  0  0  0  0  0  0  0  0  # atno 5205 bound_to 1176
  -10.3731  -37.3737  -32.5369 LP  0  0  0  0  0  0  0  0  0  0  0  0  # atno 5206 bound_to 1176
  -15.0295  -28.9659  -37.2244 LP  0  0  0  0  0  0  0  0  0  0  0  0  # atno 5215 bound_to 1247
  -16.0213  -27.6729  -37.3297 LP  0  0  0  0  0  0  0  0  0  0  0  0  # atno 5216 bound_to 1247
  -12.4855  -24.3408  -38.9312 LP  0  0  0  0  0  0  0  0  0  0  0  0  # atno 5217 bound_to 1931
  -13.5832  -25.3634  -39.5763 LP  0  0  0  0  0  0  0  0  0  0  0  0  # atno 5218 bound_to 1931
  -11.5440  -22.2016  -30.6295 LP  0  0  0  0  0  0  0  0  0  0  0  0  # atno 5224 bound_to 1070
  -12.8182  -23.2219  -30.5842 LP  0  0  0  0  0  0  0  0  0  0  0  0  # atno 5225 bound_to 1070

$$$$
IA_115.cdx|SeH_inactivess_minimized|sdf|17|dock1
  -GOLD-   4172118543D 1   1.00000     0.00000

 31 32  0  0  0  0  0  0  0  0  1 V2000
  -13.8223  -25.7979  -36.7403 C   0  0  0  0  0  0  0  0  0  0  0  0
  -17.9114  -23.2347  -38.2079 C   0  0  0  0  0  0  0  0  0  0  0  0
  -17.9138  -24.3839  -37.2033 C   0  0  0  0  0  0  0  0  0  0  0  0
  -16.5016  -22.9008  -38.6880 C   0  0  0  0  0  0  0  0  0  0  0  0
  -17.1957  -25.6158  -37.7559 C   0  0  0  0  0  0  0  0  0  0  0  0
  -15.7870  -24.1362  -39.2374 C   0  0  0  0  0  0  0  0  0  0  0  0
  -10.6344  -25.3165  -35.1945 C   0  0  0  0  0  0  0  0  0  0  0  0
  -11.3068  -25.2956  -33.8540 C   0  0  0  0  0  0  0  0  0  0  0  0
  -15.7747  -25.3071  -38.2456 C   0  0  0  0  0  0  0  0  0  0  0  0
  -12.0093  -25.9057  -35.0359 C   0  0  0  0  0  0  0  0  0  0  0  0
  -14.9025  -25.0002  -37.1098 N   0  0  0  0  0  0  0  0  0  0  0  0
  -13.1655  -25.2759  -35.6288 N   0  0  0  0  0  0  0  0  0  0  0  0
  -13.4895  -26.8306  -37.3205 O   0  0  0  0  0  0  0  0  0  0  0  0
  -18.5415  -23.4950  -39.0672 H   0  0  0  0  0  0  0  0  0  0  0  0
  -18.3584  -22.3452  -37.7445 H   0  0  0  0  0  0  0  0  0  0  0  0
  -17.4307  -24.0627  -36.2742 H   0  0  0  0  0  0  0  0  0  0  0  0
  -18.9482  -24.6479  -36.9525 H   0  0  0  0  0  0  0  0  0  0  0  0
  -16.5535  -22.1331  -39.4692 H   0  0  0  0  0  0  0  0  0  0  0  0
  -15.9210  -22.4778  -37.8611 H   0  0  0  0  0  0  0  0  0  0  0  0
  -17.1601  -26.3971  -36.9766 H   0  0  0  0  0  0  0  0  0  0  0  0
  -17.7909  -26.0456  -38.5792 H   0  0  0  0  0  0  0  0  0  0  0  0
  -16.2698  -24.4478  -40.1790 H   0  0  0  0  0  0  0  0  0  0  0  0
  -14.7514  -23.8675  -39.5100 H   0  0  0  0  0  0  0  0  0  0  0  0
  -10.5329  -24.3753  -35.7210 H   0  0  0  0  0  0  0  0  0  0  0  0
   -9.8059  -25.9999  -35.3340 H   0  0  0  0  0  0  0  0  0  0  0  0
  -10.9309  -25.9651  -33.0900 H   0  0  0  0  0  0  0  0  0  0  0  0
  -11.6570  -24.3408  -33.4812 H   0  0  0  0  0  0  0  0  0  0  0  0
  -15.3505  -26.1875  -38.7216 H   0  0  0  0  0  0  0  0  0  0  0  0
  -12.0799  -26.9882  -35.0541 H   0  0  0  0  0  0  0  0  0  0  0  0
  -15.0947  -24.1649  -36.5651 H   0  0  0  0  0  0  0  0  0  0  0  0
  -13.4835  -24.3921  -35.2435 H   0  0  0  0  0  0  0  0  0  0  0  0
  1 11  1  0  0  0  0
  1 12  1  0  0  0  0
  1 13  2  0  0  0  0
  2  3  1  0  0  0  0
  2  4  1  0  0  0  0
  3  5  1  0  0  0  0
  4  6  1  0  0  0  0
  5  9  1  0  0  0  0
  6  9  1  0  0  0  0
  7  8  1  0  0  0  0
  7 10  1  0  0  0  0
  8 10  1  0  0  0  0
  9 11  1  0  0  0  0
 10 12  1  0  0  0  0
  2 14  1  0  0  0  0
  2 15  1  0  0  0  0
  3 16  1  0  0  0  0
  3 17  1  0  0  0  0
  4 18  1  0  0  0  0
  4 19  1  0  0  0  0
  5 20  1  0  0  0  0
  5 21  1  0  0  0  0
  6 22  1  0  0  0  0
  6 23  1  0  0  0  0
  7 24  1  0  0  0  0
  7 25  1  0  0  0  0
  8 26  1  0  0  0  0
  8 27  1  0  0  0  0
  9 28  1  0  0  0  0
 10 29  1  0  0  0  0
 11 30  1  0  0  0  0
 12 31  1  0  0  0  0
M  END
> <Name>
IA_115.cdx

> <SourceTag>
IA_115

> <Gold.Version>
5.2

> <Gold.Id.Protein>
6HGV|6HGV_protein|mol2

> <Gold.Goldscore.Fitness>
43.8608

> <Gold.Goldscore.Internal.Vdw>
-0.7238

> <Gold.Goldscore.Internal.Torsion>
-1.1763

> <Gold.Goldscore.External.Vdw>
30.1159

> <Gold.Goldscore.Internal.HBond>
0.0000

> <Gold.Goldscore.External.HBond>
3.6193

> <Gold.Goldscore.Internal.Correction>
-0.7323

> <Gold.Goldscore.Hbonds>
donor molecule, donor type, donor heavy atom, donor atom, acceptor molecule, acceptor atom, score
      P1  H  1931  4507       L1    13  0.08
      L1  H    11    30       P1   853  0.09
      L1  H    12    31       P1   853  0.48

> <Gold.Goldscore.Internal.Vdw.Weighted>
-0.7238

> <Gold.Goldscore.Internal.Torsion.Weighted>
-1.1763

> <Gold.Goldscore.External.Vdw.Weighted>
41.4094

> <Gold.Goldscore.Internal.HBond.Weighted>
0.0000

> <Gold.Goldscore.External.HBond.Weighted>
3.6193

> <Gold.Goldscore.Internal.Correction.Weighted>
-0.7323

> <Gold.Protein.RotatedTorsions>
[ 3781 1176 1175 1172 ] final -114.10 input   60.00 | X-H torsion
[ 3847 1247 1246 1244 ] final   29.44 input   60.00 | X-H torsion
[ 4507 1931 1930 1928 ] final   24.04 input   60.00 | X-H torsion
[ 3677 1070 1069 1066 ] final -141.05 input   60.00 | X-H torsion
[ 3525  925  924  922 ] final   66.98 input   59.99 | X-H torsion
[ 4531 1957 1955 1953 ] final   41.42 input   60.00 | X-H torsion

> <Gold.Protein.ActiveResidues>
 PHE267  PRO268  MET310  ASP335  TRP336  MET339  TYR343  THR360  PRO361  ILE363 
 PRO371  SER374  ILE375  ASN378  PHE381  TYR383  GLN384  PHE387  LEU408  LEU417 
 MET419  LEU428  TYR466  MET469  ASN472  ASP496  VAL498  LEU499  MET503  HIS524 
 TRP525 

> <Gold.Protein.RotatedAtoms>
   -2.7024  -29.9017  -30.8502 H   0  0  0  0  0  0  0  0  0  0  0  0  # atno 3525 bound_to 925 
  -11.2407  -23.3219  -31.4137 H   0  0  0  0  0  0  0  0  0  0  0  0  # atno 3677 bound_to 1070
   -9.5277  -36.3293  -33.8273 H   0  0  0  0  0  0  0  0  0  0  0  0  # atno 3781 bound_to 1176
  -15.2930  -28.9341  -37.1358 H   0  0  0  0  0  0  0  0  0  0  0  0  # atno 3847 bound_to 1247
  -12.9948  -25.1173  -38.8740 H   0  0  0  0  0  0  0  0  0  0  0  0  # atno 4507 bound_to 1931
   -3.0987  -33.1162  -36.6537 H   0  0  0  0  0  0  0  0  0  0  0  0  # atno 4531 bound_to 1957
   -9.7614  -37.0260  -32.3754 LP  0  0  0  0  0  0  0  0  0  0  0  0  # atno 5205 bound_to 1176
  -10.8252  -37.2817  -33.5876 LP  0  0  0  0  0  0  0  0  0  0  0  0  # atno 5206 bound_to 1176
  -15.8965  -27.4583  -37.4608 LP  0  0  0  0  0  0  0  0  0  0  0  0  # atno 5215 bound_to 1247
  -14.3741  -27.8387  -37.9128 LP  0  0  0  0  0  0  0  0  0  0  0  0  # atno 5216 bound_to 1247
  -13.6484  -24.8230  -40.3349 LP  0  0  0  0  0  0  0  0  0  0  0  0  # atno 5217 bound_to 1931
  -12.5520  -23.7899  -39.7047 LP  0  0  0  0  0  0  0  0  0  0  0  0  # atno 5218 bound_to 1931
  -11.8845  -22.1798  -30.4497 LP  0  0  0  0  0  0  0  0  0  0  0  0  # atno 5224 bound_to 1070
  -12.7338  -23.5296  -30.8009 LP  0  0  0  0  0  0  0  0  0  0  0  0  # atno 5225 bound_to 1070

$$$$
IA_47.cdx|SeH_inactivess_minimized|sdf|132|dock1
  -GOLD-   4172121483D 1   1.00000     0.00000

 30 31  0  0  0  0  0  0  0  0  1 V2000
   -8.8788  -26.2994  -34.3478 C   0  0  0  0  0  0  0  0  0  0  0  0
  -17.9764  -24.4783  -37.5616 C   0  0  0  0  0  0  0  0  0  0  0  0
   -9.1877  -27.1492  -35.4098 C   0  0  0  0  0  0  0  0  0  0  0  0
   -9.7084  -25.2163  -34.0572 C   0  0  0  0  0  0  0  0  0  0  0  0
  -18.0732  -24.8578  -36.2228 C   0  0  0  0  0  0  0  0  0  0  0  0
  -16.7815  -24.6684  -38.2558 C   0  0  0  0  0  0  0  0  0  0  0  0
  -10.3261  -26.9159  -36.1813 C   0  0  0  0  0  0  0  0  0  0  0  0
  -10.8467  -24.9830  -34.8287 C   0  0  0  0  0  0  0  0  0  0  0  0
  -16.9752  -25.4272  -35.5781 C   0  0  0  0  0  0  0  0  0  0  0  0
  -15.6834  -25.2379  -37.6111 C   0  0  0  0  0  0  0  0  0  0  0  0
  -11.1557  -25.8328  -35.8908 C   0  0  0  0  0  0  0  0  0  0  0  0
  -15.7802  -25.6173  -36.2723 C   0  0  0  0  0  0  0  0  0  0  0  0
  -13.4732  -26.6217  -36.5252 C   0  0  0  0  0  0  0  0  0  0  0  0
  -12.3730  -25.5827  -36.7155 C   0  0  0  0  0  0  0  0  0  0  0  0
  -14.5942  -26.2318  -35.5768 C   0  0  0  0  0  0  0  0  0  0  0  0
  -13.4510  -27.7050  -37.1083 O   0  0  0  0  0  0  0  0  0  0  0  0
   -7.9931  -26.4819  -33.7463 H   0  0  0  0  0  0  0  0  0  0  0  0
  -18.8319  -24.0362  -38.0637 H   0  0  0  0  0  0  0  0  0  0  0  0
   -8.5425  -27.9933  -35.6356 H   0  0  0  0  0  0  0  0  0  0  0  0
   -9.4688  -24.5550  -33.2298 H   0  0  0  0  0  0  0  0  0  0  0  0
  -19.0038  -24.7108  -35.6825 H   0  0  0  0  0  0  0  0  0  0  0  0
  -16.7061  -24.3742  -39.2983 H   0  0  0  0  0  0  0  0  0  0  0  0
  -10.5588  -27.5832  -37.0070 H   0  0  0  0  0  0  0  0  0  0  0  0
  -11.4872  -24.1366  -34.5951 H   0  0  0  0  0  0  0  0  0  0  0  0
  -17.0596  -25.7196  -34.5348 H   0  0  0  0  0  0  0  0  0  0  0  0
  -14.7565  -25.3821  -38.1598 H   0  0  0  0  0  0  0  0  0  0  0  0
  -12.1132  -25.5619  -37.7856 H   0  0  0  0  0  0  0  0  0  0  0  0
  -12.7993  -24.5957  -36.4772 H   0  0  0  0  0  0  0  0  0  0  0  0
  -14.1927  -25.5269  -34.8393 H   0  0  0  0  0  0  0  0  0  0  0  0
  -14.9127  -27.1272  -35.0305 H   0  0  0  0  0  0  0  0  0  0  0  0
  1  3  1  0  0  0  0
  1  4  2  0  0  0  0
  2  5  2  0  0  0  0
  2  6  1  0  0  0  0
  3  7  2  0  0  0  0
  4  8  1  0  0  0  0
  5  9  1  0  0  0  0
  6 10  2  0  0  0  0
  7 11  1  0  0  0  0
  8 11  2  0  0  0  0
  9 12  2  0  0  0  0
 10 12  1  0  0  0  0
 11 14  1  0  0  0  0
 12 15  1  0  0  0  0
 13 14  1  0  0  0  0
 13 15  1  0  0  0  0
 13 16  2  0  0  0  0
  1 17  1  0  0  0  0
  2 18  1  0  0  0  0
  3 19  1  0  0  0  0
  4 20  1  0  0  0  0
  5 21  1  0  0  0  0
  6 22  1  0  0  0  0
  7 23  1  0  0  0  0
  8 24  1  0  0  0  0
  9 25  1  0  0  0  0
 10 26  1  0  0  0  0
 14 27  1  0  0  0  0
 14 28  1  0  0  0  0
 15 29  1  0  0  0  0
 15 30  1  0  0  0  0
M  END
> <Name>
IA_47.cdx

> <SourceTag>
IA_47

> <Gold.Version>
5.2

> <Gold.Id.Protein>
6HGV|6HGV_protein|mol2

> <Gold.Goldscore.Fitness>
51.2537

> <Gold.Goldscore.Internal.Vdw>
-0.5624

> <Gold.Goldscore.Internal.Torsion>
-2.1419

> <Gold.Goldscore.External.Vdw>
41.1667

> <Gold.Goldscore.Internal.HBond>
0.0000

> <Gold.Goldscore.External.HBond>
0.0214

> <Gold.Goldscore.Internal.Correction>
2.6676

> <Gold.Goldscore.Hbonds>
donor molecule, donor type, donor heavy atom, donor atom, acceptor molecule, acceptor atom, score
      P1  H  1256  3855       L1    16  0.01

> <Gold.Goldscore.Internal.Vdw.Weighted>
-0.5624

> <Gold.Goldscore.Internal.Torsion.Weighted>
-2.1419

> <Gold.Goldscore.External.Vdw.Weighted>
56.6042

> <Gold.Goldscore.Internal.HBond.Weighted>
0.0000

> <Gold.Goldscore.External.HBond.Weighted>
0.0214

> <Gold.Goldscore.Internal.Correction.Weighted>
2.6676

> <Gold.Protein.RotatedTorsions>
[ 3781 1176 1175 1172 ] final  -91.44 input   60.00 | X-H torsion
[ 3847 1247 1246 1244 ] final  -41.18 input   60.00 | X-H torsion
[ 4507 1931 1930 1928 ] final -108.69 input   60.00 | X-H torsion
[ 3677 1070 1069 1066 ] final -113.11 input   60.00 | X-H torsion
[ 3525  925  924  922 ] final -155.22 input   59.99 | X-H torsion
[ 4531 1957 1955 1953 ] final   -9.53 input   60.00 | X-H torsion

> <Gold.Protein.ActiveResidues>
 PHE267  PRO268  MET310  ASP335  TRP336  MET339  TYR343  THR360  PRO361  ILE363 
 PRO371  SER374  ILE375  ASN378  PHE381  TYR383  GLN384  PHE387  LEU408  LEU417 
 MET419  LEU428  TYR466  MET469  ASN472  ASP496  VAL498  LEU499  MET503  HIS524 
 TRP525 

> <Gold.Protein.RotatedAtoms>
   -2.5112  -30.1424  -29.1305 H   0  0  0  0  0  0  0  0  0  0  0  0  # atno 3525 bound_to 925 
  -11.5516  -23.6483  -31.4468 H   0  0  0  0  0  0  0  0  0  0  0  0  # atno 3677 bound_to 1070
   -9.8019  -36.4282  -34.0517 H   0  0  0  0  0  0  0  0  0  0  0  0  # atno 3781 bound_to 1176
  -16.0466  -28.1575  -37.1371 H   0  0  0  0  0  0  0  0  0  0  0  0  # atno 3847 bound_to 1247
  -13.5723  -24.6485  -40.4197 H   0  0  0  0  0  0  0  0  0  0  0  0  # atno 4507 bound_to 1931
   -2.7446  -32.3949  -36.7086 H   0  0  0  0  0  0  0  0  0  0  0  0  # atno 4531 bound_to 1957
   -9.4936  -36.8014  -32.4981 LP  0  0  0  0  0  0  0  0  0  0  0  0  # atno 5205 bound_to 1176
  -10.8169  -37.4067  -33.2391 LP  0  0  0  0  0  0  0  0  0  0  0  0  # atno 5206 bound_to 1176
  -14.9227  -27.2734  -37.9138 LP  0  0  0  0  0  0  0  0  0  0  0  0  # atno 5215 bound_to 1247
  -14.5890  -28.8057  -37.4585 LP  0  0  0  0  0  0  0  0  0  0  0  0  # atno 5216 bound_to 1247
  -12.4816  -23.8471  -39.5163 LP  0  0  0  0  0  0  0  0  0  0  0  0  # atno 5217 bound_to 1931
  -13.1373  -25.2380  -38.9667 LP  0  0  0  0  0  0  0  0  0  0  0  0  # atno 5218 bound_to 1931
  -11.4874  -22.2207  -30.6683 LP  0  0  0  0  0  0  0  0  0  0  0  0  # atno 5224 bound_to 1070
  -12.8179  -23.1600  -30.5490 LP  0  0  0  0  0  0  0  0  0  0  0  0  # atno 5225 bound_to 1070

$$$$
IA_58|SeH_inactivess_minimized|sdf|143|dock4
  -GOLD-   4172121583D 1   1.00000     0.00000

 59 63  0  0  0  0  0  0  0  0  1 V2000
  -13.5167  -24.8645  -37.2203 C   0  0  0  0  0  0  0  0  0  0  0  0
  -11.1791  -30.7643  -32.3620 C   0  0  0  0  0  0  0  0  0  0  0  0
  -10.6287  -30.7328  -33.7835 C   0  0  0  0  0  0  0  0  0  0  0  0
  -17.5869  -23.7624  -40.3992 C   0  0  0  0  0  0  0  0  0  0  0  0
  -18.5713  -23.4997  -38.1076 C   0  0  0  0  0  0  0  0  0  0  0  0
  -17.9010  -25.7716  -38.9313 C   0  0  0  0  0  0  0  0  0  0  0  0
  -16.2637  -22.6437  -38.5866 C   0  0  0  0  0  0  0  0  0  0  0  0
  -15.5928  -24.9179  -39.4113 C   0  0  0  0  0  0  0  0  0  0  0  0
  -16.5787  -24.6555  -37.1161 C   0  0  0  0  0  0  0  0  0  0  0  0
  -10.6109  -29.5243  -31.6776 C   0  0  0  0  0  0  0  0  0  0  0  0
   -9.2646  -29.0007  -35.1145 C   0  0  0  0  0  0  0  0  0  0  0  0
  -11.1101  -27.7821  -33.2887 C   0  0  0  0  0  0  0  0  0  0  0  0
  -17.6734  -22.8426  -39.1696 C   0  0  0  0  0  0  0  0  0  0  0  0
  -16.9997  -25.1261  -39.9976 C   0  0  0  0  0  0  0  0  0  0  0  0
  -17.9895  -24.8622  -37.6939 C   0  0  0  0  0  0  0  0  0  0  0  0
   -9.5715  -29.6304  -33.7539 C   0  0  1  0  0  0  0  0  0  0  0  0
  -10.6555  -27.1084  -34.5912 C   0  0  2  0  0  0  0  0  0  0  0  0
  -15.6575  -24.0020  -38.1689 C   0  0  0  0  0  0  0  0  0  0  0  0
  -11.7551  -26.1998  -35.1388 C   0  0  0  0  0  0  0  0  0  0  0  0
  -11.2610  -25.2811  -36.2498 C   0  0  0  0  0  0  0  0  0  0  0  0
  -10.3360  -28.1299  -35.5935 N   0  0  0  0  0  0  0  0  0  0  0  0
  -10.0701  -28.6730  -32.7485 N   0  0  2  0  0  0  0  0  0  0  0  0
  -14.3313  -23.8113  -37.6240 N   0  0  0  0  0  0  0  0  0  0  0  0
  -12.2965  -24.4000  -36.7361 N   0  0  0  0  0  0  0  0  0  0  0  0
  -13.8309  -26.0524  -37.2825 O   0  0  0  0  0  0  0  0  0  0  0  0
  -12.2742  -30.7408  -32.3815 H   0  0  0  0  0  0  0  0  0  0  0  0
  -10.8700  -31.6747  -31.8374 H   0  0  0  0  0  0  0  0  0  0  0  0
  -10.1987  -31.6984  -34.0690 H   0  0  0  0  0  0  0  0  0  0  0  0
  -11.4375  -30.5095  -34.4892 H   0  0  0  0  0  0  0  0  0  0  0  0
  -18.5839  -23.8982  -40.8359 H   0  0  0  0  0  0  0  0  0  0  0  0
  -16.9616  -23.2980  -41.1715 H   0  0  0  0  0  0  0  0  0  0  0  0
  -18.6544  -22.8460  -37.2309 H   0  0  0  0  0  0  0  0  0  0  0  0
  -19.5854  -23.6309  -38.5043 H   0  0  0  0  0  0  0  0  0  0  0  0
  -18.9034  -25.9426  -39.3424 H   0  0  0  0  0  0  0  0  0  0  0  0
  -17.5016  -26.7530  -38.6472 H   0  0  0  0  0  0  0  0  0  0  0  0
  -15.6207  -22.1518  -39.3284 H   0  0  0  0  0  0  0  0  0  0  0  0
  -16.3094  -21.9671  -37.7230 H   0  0  0  0  0  0  0  0  0  0  0  0
  -15.1528  -25.8881  -39.1450 H   0  0  0  0  0  0  0  0  0  0  0  0
  -14.9330  -24.4800  -40.1720 H   0  0  0  0  0  0  0  0  0  0  0  0
  -16.6323  -24.0281  -36.2166 H   0  0  0  0  0  0  0  0  0  0  0  0
  -16.1645  -25.6200  -36.7938 H   0  0  0  0  0  0  0  0  0  0  0  0
  -11.3510  -29.0165  -31.0489 H   0  0  0  0  0  0  0  0  0  0  0  0
   -9.7864  -29.8190  -31.0165 H   0  0  0  0  0  0  0  0  0  0  0  0
   -8.3362  -28.4191  -35.0461 H   0  0  0  0  0  0  0  0  0  0  0  0
   -9.0900  -29.7892  -35.8553 H   0  0  0  0  0  0  0  0  0  0  0  0
  -11.3254  -27.0068  -32.5425 H   0  0  0  0  0  0  0  0  0  0  0  0
  -12.0521  -28.3202  -33.4638 H   0  0  0  0  0  0  0  0  0  0  0  0
  -18.0934  -21.8735  -39.4612 H   0  0  0  0  0  0  0  0  0  0  0  0
  -16.9417  -25.7775  -40.8767 H   0  0  0  0  0  0  0  0  0  0  0  0
  -18.6340  -25.3260  -36.9390 H   0  0  0  0  0  0  0  0  0  0  0  0
   -8.6361  -30.0633  -33.3722 H   0  0  0  0  0  0  0  0  0  0  0  0
   -9.7701  -26.4882  -34.3998 H   0  0  0  0  0  0  0  0  0  0  0  0
  -12.1430  -25.5857  -34.3178 H   0  0  0  0  0  0  0  0  0  0  0  0
  -12.5849  -26.8175  -35.5021 H   0  0  0  0  0  0  0  0  0  0  0  0
  -10.4498  -24.6470  -35.8784 H   0  0  0  0  0  0  0  0  0  0  0  0
  -10.8822  -25.8553  -37.1012 H   0  0  0  0  0  0  0  0  0  0  0  0
  -10.0479  -27.6836  -36.4638 H   0  0  0  0  0  0  0  0  0  0  0  0
  -13.9783  -22.8647  -37.5319 H   0  0  0  0  0  0  0  0  0  0  0  0
  -12.1063  -23.4032  -36.7657 H   0  0  0  0  0  0  0  0  0  0  0  0
  1 23  1  0  0  0  0
  1 24  1  0  0  0  0
  1 25  2  0  0  0  0
  2  3  1  0  0  0  0
  2 10  1  0  0  0  0
  3 16  1  0  0  0  0
  4 13  1  0  0  0  0
  4 14  1  0  0  0  0
  5 13  1  0  0  0  0
  5 15  1  0  0  0  0
  6 14  1  0  0  0  0
  6 15  1  0  0  0  0
  7 13  1  0  0  0  0
  7 18  1  0  0  0  0
  8 14  1  0  0  0  0
  8 18  1  0  0  0  0
  9 15  1  0  0  0  0
  9 18  1  0  0  0  0
 10 22  1  0  0  0  0
 11 16  1  0  0  0  0
 11 21  1  0  0  0  0
 12 17  1  0  0  0  0
 12 22  1  0  0  0  0
 16 22  1  0  0  0  0
 17 19  1  0  0  0  0
 17 21  1  0  0  0  0
 18 23  1  0  0  0  0
 19 20  1  0  0  0  0
 20 24  1  0  0  0  0
  2 26  1  0  0  0  0
  2 27  1  0  0  0  0
  3 28  1  0  0  0  0
  3 29  1  0  0  0  0
  4 30  1  0  0  0  0
  4 31  1  0  0  0  0
  5 32  1  0  0  0  0
  5 33  1  0  0  0  0
  6 34  1  0  0  0  0
  6 35  1  0  0  0  0
  7 36  1  0  0  0  0
  7 37  1  0  0  0  0
  8 38  1  0  0  0  0
  8 39  1  0  0  0  0
  9 40  1  0  0  0  0
  9 41  1  0  0  0  0
 10 42  1  0  0  0  0
 10 43  1  0  0  0  0
 11 44  1  0  0  0  0
 11 45  1  0  0  0  0
 12 46  1  0  0  0  0
 12 47  1  0  0  0  0
 13 48  1  0  0  0  0
 14 49  1  0  0  0  0
 15 50  1  0  0  0  0
 16 51  1  0  0  0  0
 17 52  1  0  0  0  0
 19 53  1  0  0  0  0
 19 54  1  0  0  0  0
 20 55  1  0  0  0  0
 20 56  1  0  0  0  0
 21 57  1  0  0  0  0
 23 58  1  0  0  0  0
 24 59  1  0  0  0  0
M  END
> <Name>
IA_58

> <SourceTag>
IA_58

> <Gold.Version>
5.2

> <Gold.Id.Protein>
6HGV|6HGV_protein|mol2

> <Gold.Goldscore.Fitness>
56.5571

> <Gold.Goldscore.Internal.Vdw>
-5.0395

> <Gold.Goldscore.Internal.Torsion>
-1.4545

> <Gold.Goldscore.External.Vdw>
40.4613

> <Gold.Goldscore.Internal.HBond>
0.0000

> <Gold.Goldscore.External.HBond>
3.0085

> <Gold.Goldscore.Internal.Correction>
-4.4084

> <Gold.Goldscore.Hbonds>
donor molecule, donor type, donor heavy atom, donor atom, acceptor molecule, acceptor atom, score
      P1  H  1247  3847       L1    25  0.43
      L1  H    23    58       P1   854  0.12
      L1  H    24    59       P1   854  0.24

> <Gold.Goldscore.Internal.Vdw.Weighted>
-5.0395

> <Gold.Goldscore.Internal.Torsion.Weighted>
-1.4545

> <Gold.Goldscore.External.Vdw.Weighted>
55.6343

> <Gold.Goldscore.Internal.HBond.Weighted>
0.0000

> <Gold.Goldscore.External.HBond.Weighted>
3.0085

> <Gold.Goldscore.Internal.Correction.Weighted>
-4.4084

> <Gold.Protein.RotatedTorsions>
[ 3781 1176 1175 1172 ] final  -95.65 input   60.00 | X-H torsion
[ 3847 1247 1246 1244 ] final -178.16 input   60.00 | X-H torsion
[ 4507 1931 1930 1928 ] final  145.49 input   60.00 | X-H torsion
[ 3677 1070 1069 1066 ] final -101.34 input   60.00 | X-H torsion
[ 3525  925  924  922 ] final   54.67 input   59.99 | X-H torsion
[ 4531 1957 1955 1953 ] final   96.76 input   60.00 | X-H torsion

> <Gold.Protein.ActiveResidues>
 PHE267  PRO268  MET310  ASP335  TRP336  MET339  TYR343  THR360  PRO361  ILE363 
 PRO371  SER374  ILE375  ASN378  PHE381  TYR383  GLN384  PHE387  LEU408  LEU417 
 MET419  LEU428  TYR466  MET469  ASN472  ASP496  VAL498  LEU499  MET503  HIS524 
 TRP525 

> <Gold.Protein.RotatedAtoms>
   -2.8848  -29.8203  -30.8711 H   0  0  0  0  0  0  0  0  0  0  0  0  # atno 3525 bound_to 925 
  -11.7156  -23.7448  -31.4211 H   0  0  0  0  0  0  0  0  0  0  0  0  # atno 3677 bound_to 1070
   -9.7469  -36.4040  -34.0184 H   0  0  0  0  0  0  0  0  0  0  0  0  # atno 3781 bound_to 1176
  -14.6920  -27.4232  -37.9497 H   0  0  0  0  0  0  0  0  0  0  0  0  # atno 3847 bound_to 1247
  -12.5635  -23.7926  -39.7264 H   0  0  0  0  0  0  0  0  0  0  0  0  # atno 4507 bound_to 1931
   -2.7168  -33.8926  -36.7397 H   0  0  0  0  0  0  0  0  0  0  0  0  # atno 4531 bound_to 1957
   -9.5380  -36.8432  -32.4655 LP  0  0  0  0  0  0  0  0  0  0  0  0  # atno 5205 bound_to 1176
  -10.8278  -37.3893  -33.3051 LP  0  0  0  0  0  0  0  0  0  0  0  0  # atno 5206 bound_to 1176
  -14.8055  -28.9230  -37.3287 LP  0  0  0  0  0  0  0  0  0  0  0  0  # atno 5215 bound_to 1247
  -16.0704  -27.8955  -37.2253 LP  0  0  0  0  0  0  0  0  0  0  0  0  # atno 5216 bound_to 1247
  -12.9801  -25.1047  -38.8587 LP  0  0  0  0  0  0  0  0  0  0  0  0  # atno 5217 bound_to 1931
  -13.6547  -24.8424  -40.3225 LP  0  0  0  0  0  0  0  0  0  0  0  0  # atno 5218 bound_to 1931
  -11.3477  -22.2953  -30.7794 LP  0  0  0  0  0  0  0  0  0  0  0  0  # atno 5224 bound_to 1070
  -12.7923  -22.9882  -30.4638 LP  0  0  0  0  0  0  0  0  0  0  0  0  # atno 5225 bound_to 1070

$$$$
IA_166.cdx|SeH_inactivess_minimized|sdf|68|dock10
  -GOLD-   4172120 73D 1   1.00000     0.00000

 43 44  0  0  0  0  0  0  0  0  1 V2000
   -8.0658  -31.3981  -35.1497 C   0  0  0  0  0  0  0  0  0  0  0  0
   -4.0077  -33.6340  -33.2145 C   0  0  0  0  0  0  0  0  0  0  0  0
   -3.8611  -32.4698  -34.1907 C   0  0  0  0  0  0  0  0  0  0  0  0
   -5.4719  -33.9593  -32.9317 C   0  0  0  0  0  0  0  0  0  0  0  0
   -4.6475  -32.7137  -35.4795 C   0  0  0  0  0  0  0  0  0  0  0  0
   -6.2544  -34.2001  -34.2234 C   0  0  0  0  0  0  0  0  0  0  0  0
  -11.1896  -26.6965  -36.4305 C   0  0  0  0  0  0  0  0  0  0  0  0
   -9.9689  -26.2138  -34.4118 C   0  0  0  0  0  0  0  0  0  0  0  0
  -12.2068  -25.6292  -36.0368 C   0  0  0  0  0  0  0  0  0  0  0  0
  -11.0154  -25.1587  -34.0651 C   0  0  0  0  0  0  0  0  0  0  0  0
   -6.1241  -33.0429  -35.2228 C   0  0  0  0  0  0  0  0  0  0  0  0
   -9.5930  -28.2918  -35.5783 C   0  0  0  0  0  0  0  0  0  0  0  0
   -9.7933  -29.5809  -34.7994 C   0  0  0  0  0  0  0  0  0  0  0  0
  -10.5806  -27.2743  -35.2243 N   0  0  0  0  0  0  0  0  0  0  0  0
   -6.8277  -31.8596  -34.7229 N   0  0  0  0  0  0  0  0  0  0  0  0
   -8.5378  -30.2552  -34.5329 N   0  0  0  0  0  0  0  0  0  0  0  0
  -11.5816  -24.6101  -35.2558 O   0  0  0  0  0  0  0  0  0  0  0  0
   -9.0084  -32.1190  -36.3411 S   0  0  0  0  0  0  0  0  0  0  0  0
   -3.5048  -34.5205  -33.6198 H   0  0  0  0  0  0  0  0  0  0  0  0
   -3.5016  -33.3850  -32.2723 H   0  0  0  0  0  0  0  0  0  0  0  0
   -4.2088  -31.5453  -33.7173 H   0  0  0  0  0  0  0  0  0  0  0  0
   -2.8011  -32.3273  -34.4330 H   0  0  0  0  0  0  0  0  0  0  0  0
   -5.5325  -34.8520  -32.2979 H   0  0  0  0  0  0  0  0  0  0  0  0
   -5.9307  -33.1371  -32.3718 H   0  0  0  0  0  0  0  0  0  0  0  0
   -4.5711  -31.8229  -36.1273 H   0  0  0  0  0  0  0  0  0  0  0  0
   -4.1737  -33.5333  -36.0457 H   0  0  0  0  0  0  0  0  0  0  0  0
   -5.9087  -35.1382  -34.6892 H   0  0  0  0  0  0  0  0  0  0  0  0
   -7.3187  -34.3644  -33.9799 H   0  0  0  0  0  0  0  0  0  0  0  0
  -11.6975  -27.4751  -37.0063 H   0  0  0  0  0  0  0  0  0  0  0  0
  -10.4176  -26.2457  -37.0632 H   0  0  0  0  0  0  0  0  0  0  0  0
   -9.1473  -25.7432  -34.9623 H   0  0  0  0  0  0  0  0  0  0  0  0
   -9.5688  -26.6325  -33.4842 H   0  0  0  0  0  0  0  0  0  0  0  0
  -12.6164  -25.1565  -36.9354 H   0  0  0  0  0  0  0  0  0  0  0  0
  -13.0457  -26.0581  -35.4754 H   0  0  0  0  0  0  0  0  0  0  0  0
  -11.8143  -25.5710  -33.4365 H   0  0  0  0  0  0  0  0  0  0  0  0
  -10.5486  -24.3385  -33.5105 H   0  0  0  0  0  0  0  0  0  0  0  0
   -6.6095  -33.3089  -36.1583 H   0  0  0  0  0  0  0  0  0  0  0  0
   -9.6698  -28.4609  -36.6571 H   0  0  0  0  0  0  0  0  0  0  0  0
   -8.6063  -27.8708  -35.3611 H   0  0  0  0  0  0  0  0  0  0  0  0
  -10.2568  -29.3701  -33.8308 H   0  0  0  0  0  0  0  0  0  0  0  0
  -10.4336  -30.2812  -35.3455 H   0  0  0  0  0  0  0  0  0  0  0  0
   -6.3538  -31.3328  -33.9933 H   0  0  0  0  0  0  0  0  0  0  0  0
   -7.9431  -29.8456  -33.8187 H   0  0  0  0  0  0  0  0  0  0  0  0
  1 15  1  0  0  0  0
  1 16  1  0  0  0  0
  1 18  2  0  0  0  0
  2  3  1  0  0  0  0
  2  4  1  0  0  0  0
  3  5  1  0  0  0  0
  4  6  1  0  0  0  0
  5 11  1  0  0  0  0
  6 11  1  0  0  0  0
  7  9  1  0  0  0  0
  7 14  1  0  0  0  0
  8 10  1  0  0  0  0
  8 14  1  0  0  0  0
  9 17  1  0  0  0  0
 10 17  1  0  0  0  0
 11 15  1  0  0  0  0
 12 13  1  0  0  0  0
 12 14  1  0  0  0  0
 13 16  1  0  0  0  0
  2 19  1  0  0  0  0
  2 20  1  0  0  0  0
  3 21  1  0  0  0  0
  3 22  1  0  0  0  0
  4 23  1  0  0  0  0
  4 24  1  0  0  0  0
  5 25  1  0  0  0  0
  5 26  1  0  0  0  0
  6 27  1  0  0  0  0
  6 28  1  0  0  0  0
  7 29  1  0  0  0  0
  7 30  1  0  0  0  0
  8 31  1  0  0  0  0
  8 32  1  0  0  0  0
  9 33  1  0  0  0  0
  9 34  1  0  0  0  0
 10 35  1  0  0  0  0
 10 36  1  0  0  0  0
 11 37  1  0  0  0  0
 12 38  1  0  0  0  0
 12 39  1  0  0  0  0
 13 40  1  0  0  0  0
 13 41  1  0  0  0  0
 15 42  1  0  0  0  0
 16 43  1  0  0  0  0
M  END
> <Name>
IA_166.cdx

> <SourceTag>
IA_166

> <Gold.Version>
5.2

> <Gold.Id.Protein>
6HGV|6HGV_protein|mol2

> <Gold.Goldscore.Fitness>
53.5842

> <Gold.Goldscore.Internal.Vdw>
-8.2519

> <Gold.Goldscore.Internal.Torsion>
-3.7988

> <Gold.Goldscore.External.Vdw>
43.7064

> <Gold.Goldscore.Internal.HBond>
0.0000

> <Gold.Goldscore.External.HBond>
0.0000

> <Gold.Goldscore.Internal.Correction>
-5.5386

> <Gold.Goldscore.Internal.Vdw.Weighted>
-8.2519

> <Gold.Goldscore.Internal.Torsion.Weighted>
-3.7988

> <Gold.Goldscore.External.Vdw.Weighted>
60.0963

> <Gold.Goldscore.Internal.HBond.Weighted>
0.0000

> <Gold.Goldscore.External.HBond.Weighted>
0.0000

> <Gold.Goldscore.Internal.Correction.Weighted>
-5.5386

> <Gold.Protein.RotatedTorsions>
[ 3781 1176 1175 1172 ] final -160.76 input   60.00 | X-H torsion
[ 3847 1247 1246 1244 ] final  160.53 input   60.00 | X-H torsion
[ 4507 1931 1930 1928 ] final   94.24 input   60.00 | X-H torsion
[ 3677 1070 1069 1066 ] final  -62.43 input   60.00 | X-H torsion
[ 3525  925  924  922 ] final   52.25 input   59.99 | X-H torsion
[ 4531 1957 1955 1953 ] final  -79.10 input   60.00 | X-H torsion

> <Gold.Protein.ActiveResidues>
 PHE267  PRO268  MET310  ASP335  TRP336  MET339  TYR343  THR360  PRO361  ILE363 
 PRO371  SER374  ILE375  ASN378  PHE381  TYR383  GLN384  PHE387  LEU408  LEU417 
 MET419  LEU428  TYR466  MET469  ASN472  ASP496  VAL498  LEU499  MET503  HIS524 
 TRP525 

> <Gold.Protein.RotatedAtoms>
   -2.9209  -29.8046  -30.8702 H   0  0  0  0  0  0  0  0  0  0  0  0  # atno 3525 bound_to 925 
  -12.2879  -23.8317  -31.1892 H   0  0  0  0  0  0  0  0  0  0  0  0  # atno 3677 bound_to 1070
   -9.2436  -36.3951  -33.1456 H   0  0  0  0  0  0  0  0  0  0  0  0  # atno 3781 bound_to 1176
  -14.4624  -27.6822  -37.9407 H   0  0  0  0  0  0  0  0  0  0  0  0  # atno 3847 bound_to 1247
  -12.4490  -24.2040  -39.0385 H   0  0  0  0  0  0  0  0  0  0  0  0  # atno 4507 bound_to 1931
   -1.6967  -32.3327  -36.9067 H   0  0  0  0  0  0  0  0  0  0  0  0  # atno 4531 bound_to 1957
  -10.3937  -37.3816  -32.5523 LP  0  0  0  0  0  0  0  0  0  0  0  0  # atno 5205 bound_to 1176
  -10.4790  -36.8598  -34.0973 LP  0  0  0  0  0  0  0  0  0  0  0  0  # atno 5206 bound_to 1176
  -15.1218  -28.9655  -37.1883 LP  0  0  0  0  0  0  0  0  0  0  0  0  # atno 5215 bound_to 1247
  -15.9854  -27.5922  -37.3747 LP  0  0  0  0  0  0  0  0  0  0  0  0  # atno 5216 bound_to 1247
  -13.5042  -25.3832  -39.4179 LP  0  0  0  0  0  0  0  0  0  0  0  0  # atno 5217 bound_to 1931
  -13.2460  -24.1496  -40.4562 LP  0  0  0  0  0  0  0  0  0  0  0  0  # atno 5218 bound_to 1931
  -11.0910  -22.7298  -31.1531 LP  0  0  0  0  0  0  0  0  0  0  0  0  # atno 5224 bound_to 1070
  -12.4728  -22.4662  -30.3236 LP  0  0  0  0  0  0  0  0  0  0  0  0  # atno 5225 bound_to 1070

$$$$
IA_162.cdx|SeH_inactivess_minimized|sdf|64|dock3
  -GOLD-   4172120 33D 1   1.00000     0.00000

 18 18  0  0  0  0  0  0  0  0  1 V2000
   -9.3731  -26.6537  -34.8864 C   0  0  0  0  0  0  0  0  0  0  0  0
  -10.2156  -27.3645  -35.7409 C   0  0  0  0  0  0  0  0  0  0  0  0
   -9.8711  -25.5774  -34.1520 C   0  0  0  0  0  0  0  0  0  0  0  0
  -11.5564  -26.9990  -35.8614 C   0  0  0  0  0  0  0  0  0  0  0  0
  -11.2118  -25.2119  -34.2724 C   0  0  0  0  0  0  0  0  0  0  0  0
  -12.0545  -25.9227  -35.1271 C   0  0  0  0  0  0  0  0  0  0  0  0
  -14.5540  -26.3106  -35.3316 C   0  0  0  0  0  0  0  0  0  0  0  0
  -15.7540  -25.6775  -35.4450 N   0  0  0  0  0  0  0  0  0  0  0  0
  -13.3957  -25.5573  -35.2475 N   0  0  0  0  0  0  0  0  0  0  0  0
  -14.4959  -27.9839  -35.2253 S   0  0  0  0  0  0  0  0  0  0  0  0
   -8.3291  -26.9385  -34.7917 H   0  0  0  0  0  0  0  0  0  0  0  0
   -9.8284  -28.2031  -36.3121 H   0  0  0  0  0  0  0  0  0  0  0  0
   -9.2149  -25.0247  -33.4860 H   0  0  0  0  0  0  0  0  0  0  0  0
  -12.2037  -27.5605  -36.5303 H   0  0  0  0  0  0  0  0  0  0  0  0
  -11.5890  -24.3713  -33.6952 H   0  0  0  0  0  0  0  0  0  0  0  0
  -16.6207  -26.1997  -35.3679 H   0  0  0  0  0  0  0  0  0  0  0  0
  -15.8498  -24.6698  -35.4719 H   0  0  0  0  0  0  0  0  0  0  0  0
  -13.5772  -24.5469  -35.2627 H   0  0  0  0  0  0  0  0  0  0  0  0
  1  2  2  0  0  0  0
  1  3  1  0  0  0  0
  2  4  1  0  0  0  0
  3  5  2  0  0  0  0
  4  6  2  0  0  0  0
  5  6  1  0  0  0  0
  6  9  1  0  0  0  0
  7  8  1  0  0  0  0
  7  9  1  0  0  0  0
  7 10  2  0  0  0  0
  1 11  1  0  0  0  0
  2 12  1  0  0  0  0
  3 13  1  0  0  0  0
  4 14  1  0  0  0  0
  5 15  1  0  0  0  0
  8 16  1  0  0  0  0
  8 17  1  0  0  0  0
  9 18  1  0  0  0  0
M  END
> <Name>
IA_162.cdx

> <SourceTag>
IA_162

> <Gold.Version>
5.2

> <Gold.Id.Protein>
6HGV|6HGV_protein|mol2

> <Gold.Goldscore.Fitness>
41.2885

> <Gold.Goldscore.Internal.Vdw>
-0.1822

> <Gold.Goldscore.Internal.Torsion>
-2.6971

> <Gold.Goldscore.External.Vdw>
27.8715

> <Gold.Goldscore.Internal.HBond>
0.0000

> <Gold.Goldscore.External.HBond>
3.0247

> <Gold.Goldscore.Internal.Correction>
-2.8197

> <Gold.Goldscore.Hbonds>
donor molecule, donor type, donor heavy atom, donor atom, acceptor molecule, acceptor atom, score
      L1  H     9    18       P1   853  0.50

> <Gold.Goldscore.Internal.Vdw.Weighted>
-0.1822

> <Gold.Goldscore.Internal.Torsion.Weighted>
-2.6971

> <Gold.Goldscore.External.Vdw.Weighted>
38.3233

> <Gold.Goldscore.Internal.HBond.Weighted>
0.0000

> <Gold.Goldscore.External.HBond.Weighted>
3.0247

> <Gold.Goldscore.Internal.Correction.Weighted>
-2.8197

> <Gold.Protein.RotatedTorsions>
[ 3781 1176 1175 1172 ] final   97.22 input   60.00 | X-H torsion
[ 3847 1247 1246 1244 ] final -166.68 input   60.00 | X-H torsion
[ 4507 1931 1930 1928 ] final   22.08 input   60.00 | X-H torsion
[ 3677 1070 1069 1066 ] final  -68.81 input   60.00 | X-H torsion
[ 3525  925  924  922 ] final  -57.19 input   59.99 | X-H torsion
[ 4531 1957 1955 1953 ] final    2.43 input   60.00 | X-H torsion

> <Gold.Protein.ActiveResidues>
 PHE267  PRO268  MET310  ASP335  TRP336  MET339  TYR343  THR360  PRO361  ILE363 
 PRO371  SER374  ILE375  ASN378  PHE381  TYR383  GLN384  PHE387  LEU408  LEU417 
 MET419  LEU428  TYR466  MET469  ASN472  ASP496  VAL498  LEU499  MET503  HIS524 
 TRP525 

> <Gold.Protein.RotatedAtoms>
   -3.7211  -29.5730  -29.5885 H   0  0  0  0  0  0  0  0  0  0  0  0  # atno 3525 bound_to 925 
  -12.1979  -23.8435  -31.2402 H   0  0  0  0  0  0  0  0  0  0  0  0  # atno 3677 bound_to 1070
  -10.1533  -37.2723  -32.4238 H   0  0  0  0  0  0  0  0  0  0  0  0  # atno 3781 bound_to 1176
  -14.8462  -27.3191  -37.9290 H   0  0  0  0  0  0  0  0  0  0  0  0  # atno 3847 bound_to 1247
  -13.0163  -25.1373  -38.8868 H   0  0  0  0  0  0  0  0  0  0  0  0  # atno 4507 bound_to 1931
   -2.8827  -32.5306  -36.6847 H   0  0  0  0  0  0  0  0  0  0  0  0  # atno 4531 bound_to 1957
  -10.6632  -37.0374  -33.9512 LP  0  0  0  0  0  0  0  0  0  0  0  0  # atno 5205 bound_to 1176
   -9.2934  -36.3206  -33.4252 LP  0  0  0  0  0  0  0  0  0  0  0  0  # atno 5206 bound_to 1176
  -14.6543  -28.8513  -37.4155 LP  0  0  0  0  0  0  0  0  0  0  0  0  # atno 5215 bound_to 1247
  -16.0663  -28.0721  -37.1593 LP  0  0  0  0  0  0  0  0  0  0  0  0  # atno 5216 bound_to 1247
  -13.6393  -24.7967  -40.3510 LP  0  0  0  0  0  0  0  0  0  0  0  0  # atno 5217 bound_to 1931
  -12.5394  -23.7963  -39.6757 LP  0  0  0  0  0  0  0  0  0  0  0  0  # atno 5218 bound_to 1931
  -11.1080  -22.6437  -31.0957 LP  0  0  0  0  0  0  0  0  0  0  0  0  # atno 5224 bound_to 1070
  -12.5465  -22.5405  -30.3297 LP  0  0  0  0  0  0  0  0  0  0  0  0  # atno 5225 bound_to 1070

$$$$
IA_37|SeH_inactivess_minimized|sdf|123|dock6
  -GOLD-   4172121253D 1   1.00000     0.00000

 39 40  0  0  0  0  0  0  0  0  1 V2000
  -19.4970  -24.0377  -36.8314 C   0  0  0  0  0  0  0  0  0  0  0  0
  -18.9395  -25.0835  -36.0957 C   0  0  0  0  0  0  0  0  0  0  0  0
  -18.6930  -23.2742  -37.6778 C   0  0  0  0  0  0  0  0  0  0  0  0
  -17.5779  -25.3656  -36.2065 C   0  0  0  0  0  0  0  0  0  0  0  0
  -17.3315  -23.5565  -37.7886 C   0  0  0  0  0  0  0  0  0  0  0  0
  -16.7740  -24.6021  -37.0530 C   0  0  0  0  0  0  0  0  0  0  0  0
  -14.5403  -25.3110  -36.1305 C   0  0  0  0  0  0  0  0  0  0  0  0
   -9.5071  -25.9775  -34.2960 C   0  0  0  0  0  0  0  0  0  0  0  0
   -9.9378  -27.1396  -35.1855 C   0  0  0  0  0  0  0  0  0  0  0  0
  -10.7073  -25.2839  -33.6589 C   0  0  0  0  0  0  0  0  0  0  0  0
  -10.9524  -26.6979  -36.2375 C   0  0  0  0  0  0  0  0  0  0  0  0
  -11.7235  -24.8392  -34.7084 C   0  0  0  0  0  0  0  0  0  0  0  0
  -12.1657  -26.0076  -35.5997 C   0  0  0  0  0  0  0  0  0  0  0  0
  -16.4945  -22.7219  -38.7028 C   0  0  0  0  0  0  0  0  0  0  0  0
  -13.1398  -25.5278  -36.6741 C   0  0  0  0  0  0  0  0  0  0  0  0
  -15.3948  -24.9042  -37.1513 N   0  0  0  0  0  0  0  0  0  0  0  0
  -14.8202  -25.4857  -34.9491 O   0  0  0  0  0  0  0  0  0  0  0  0
  -15.3917  -22.1939  -37.9779 O   0  0  0  0  0  0  0  0  0  0  0  0
  -20.5573  -23.8184  -36.7451 H   0  0  0  0  0  0  0  0  0  0  0  0
  -19.5656  -25.6781  -35.4368 H   0  0  0  0  0  0  0  0  0  0  0  0
  -19.1369  -22.4616  -38.2468 H   0  0  0  0  0  0  0  0  0  0  0  0
  -17.1555  -26.1832  -35.6278 H   0  0  0  0  0  0  0  0  0  0  0  0
   -8.8337  -26.3428  -33.5124 H   0  0  0  0  0  0  0  0  0  0  0  0
   -8.9413  -25.2517  -34.8930 H   0  0  0  0  0  0  0  0  0  0  0  0
   -9.0590  -27.5706  -35.6786 H   0  0  0  0  0  0  0  0  0  0  0  0
  -10.3764  -27.9312  -34.5655 H   0  0  0  0  0  0  0  0  0  0  0  0
  -11.1906  -25.9676  -32.9501 H   0  0  0  0  0  0  0  0  0  0  0  0
  -10.3674  -24.4155  -33.0833 H   0  0  0  0  0  0  0  0  0  0  0  0
  -10.4637  -26.0155  -36.9449 H   0  0  0  0  0  0  0  0  0  0  0  0
  -11.2792  -27.5714  -36.8143 H   0  0  0  0  0  0  0  0  0  0  0  0
  -12.5942  -24.4011  -34.2059 H   0  0  0  0  0  0  0  0  0  0  0  0
  -11.2807  -24.0460  -35.3246 H   0  0  0  0  0  0  0  0  0  0  0  0
  -12.6900  -26.7408  -34.9724 H   0  0  0  0  0  0  0  0  0  0  0  0
  -16.1135  -23.3158  -39.5436 H   0  0  0  0  0  0  0  0  0  0  0  0
  -17.0746  -21.8893  -39.1211 H   0  0  0  0  0  0  0  0  0  0  0  0
  -13.1816  -26.2711  -37.4743 H   0  0  0  0  0  0  0  0  0  0  0  0
  -12.7729  -24.5873  -37.0933 H   0  0  0  0  0  0  0  0  0  0  0  0
  -14.9941  -24.8094  -38.0822 H   0  0  0  0  0  0  0  0  0  0  0  0
  -14.9892  -21.5109  -38.5384 H   0  0  0  0  0  0  0  0  0  0  0  0
  1  2  1  0  0  0  0
  1  3  2  0  0  0  0
  2  4  2  0  0  0  0
  3  5  1  0  0  0  0
  4  6  1  0  0  0  0
  5  6  2  0  0  0  0
  5 14  1  0  0  0  0
  6 16  1  0  0  0  0
  7 15  1  0  0  0  0
  7 16  1  0  0  0  0
  7 17  2  0  0  0  0
  8  9  1  0  0  0  0
  8 10  1  0  0  0  0
  9 11  1  0  0  0  0
 10 12  1  0  0  0  0
 11 13  1  0  0  0  0
 12 13  1  0  0  0  0
 13 15  1  0  0  0  0
 14 18  1  0  0  0  0
  1 19  1  0  0  0  0
  2 20  1  0  0  0  0
  3 21  1  0  0  0  0
  4 22  1  0  0  0  0
  8 23  1  0  0  0  0
  8 24  1  0  0  0  0
  9 25  1  0  0  0  0
  9 26  1  0  0  0  0
 10 27  1  0  0  0  0
 10 28  1  0  0  0  0
 11 29  1  0  0  0  0
 11 30  1  0  0  0  0
 12 31  1  0  0  0  0
 12 32  1  0  0  0  0
 13 33  1  0  0  0  0
 14 34  1  0  0  0  0
 14 35  1  0  0  0  0
 15 36  1  0  0  0  0
 15 37  1  0  0  0  0
 16 38  1  0  0  0  0
 18 39  1  0  0  0  0
M  END
> <Name>
IA_37

> <SourceTag>
IA_37

> <Gold.Version>
5.2

> <Gold.Id.Protein>
6HGV|6HGV_protein|mol2

> <Gold.Goldscore.Fitness>
62.8515

> <Gold.Goldscore.Internal.Vdw>
-3.1976

> <Gold.Goldscore.Internal.Torsion>
-4.2492

> <Gold.Goldscore.External.Vdw>
45.6013

> <Gold.Goldscore.Internal.HBond>
0.0000

> <Gold.Goldscore.External.HBond>
1.7494

> <Gold.Goldscore.Internal.Correction>
-5.8470

> <Gold.Goldscore.Hbonds>
donor molecule, donor type, donor heavy atom, donor atom, acceptor molecule, acceptor atom, score
      L1  H    16    38       P1  1931  0.14
      L1  H    18    39       P1   302  0.74

> <Gold.Goldscore.Internal.Vdw.Weighted>
-3.1976

> <Gold.Goldscore.Internal.Torsion.Weighted>
-4.2492

> <Gold.Goldscore.External.Vdw.Weighted>
62.7018

> <Gold.Goldscore.Internal.HBond.Weighted>
0.0000

> <Gold.Goldscore.External.HBond.Weighted>
1.7494

> <Gold.Goldscore.Internal.Correction.Weighted>
-5.8470

> <Gold.Protein.RotatedTorsions>
[ 3781 1176 1175 1172 ] final  -51.94 input   60.00 | X-H torsion
[ 3847 1247 1246 1244 ] final  -72.96 input   60.00 | X-H torsion
[ 4507 1931 1930 1928 ] final  137.38 input   60.00 | X-H torsion
[ 3677 1070 1069 1066 ] final  -70.08 input   60.00 | X-H torsion
[ 3525  925  924  922 ] final  141.75 input   59.99 | X-H torsion
[ 4531 1957 1955 1953 ] final  111.06 input   60.00 | X-H torsion

> <Gold.Protein.ActiveResidues>
 PHE267  PRO268  MET310  ASP335  TRP336  MET339  TYR343  THR360  PRO361  ILE363 
 PRO371  SER374  ILE375  ASN378  PHE381  TYR383  GLN384  PHE387  LEU408  LEU417 
 MET419  LEU428  TYR466  MET469  ASN472  ASP496  VAL498  LEU499  MET503  HIS524 
 TRP525 

> <Gold.Protein.RotatedAtoms>
   -2.0551  -30.2628  -29.9881 H   0  0  0  0  0  0  0  0  0  0  0  0  # atno 3525 bound_to 925 
  -12.1794  -23.8446  -31.2499 H   0  0  0  0  0  0  0  0  0  0  0  0  # atno 3677 bound_to 1070
  -10.3380  -36.7519  -34.1423 H   0  0  0  0  0  0  0  0  0  0  0  0  # atno 3781 bound_to 1176
  -16.0187  -27.6832  -37.3295 H   0  0  0  0  0  0  0  0  0  0  0  0  # atno 3847 bound_to 1247
  -12.5139  -23.8217  -39.6071 H   0  0  0  0  0  0  0  0  0  0  0  0  # atno 4507 bound_to 1931
   -2.5158  -34.0036  -36.7799 H   0  0  0  0  0  0  0  0  0  0  0  0  # atno 4531 bound_to 1957
   -9.2449  -36.4574  -32.9734 LP  0  0  0  0  0  0  0  0  0  0  0  0  # atno 5205 bound_to 1176
  -10.5257  -37.4246  -32.6725 LP  0  0  0  0  0  0  0  0  0  0  0  0  # atno 5206 bound_to 1176
  -14.5177  -27.5913  -37.9511 LP  0  0  0  0  0  0  0  0  0  0  0  0  # atno 5215 bound_to 1247
  -15.0221  -28.9655  -37.2274 LP  0  0  0  0  0  0  0  0  0  0  0  0  # atno 5216 bound_to 1247
  -13.0700  -25.1855  -38.9151 LP  0  0  0  0  0  0  0  0  0  0  0  0  # atno 5217 bound_to 1931
  -13.6147  -24.7322  -40.3863 LP  0  0  0  0  0  0  0  0  0  0  0  0  # atno 5218 bound_to 1931
  -11.1126  -22.6270  -31.0839 LP  0  0  0  0  0  0  0  0  0  0  0  0  # atno 5224 bound_to 1070
  -12.5604  -22.5561  -30.3318 LP  0  0  0  0  0  0  0  0  0  0  0  0  # atno 5225 bound_to 1070

$$$$
IA_195.cdx|SeH_inactivess_minimized|sdf|94|dock3
  -GOLD-   4172120313D 1   1.00000     0.00000

 35 36  0  0  0  0  0  0  0  0  1 V2000
  -17.9698  -24.8023  -38.3923 C   0  0  0  0  0  0  0  0  0  0  0  0
   -8.6357  -27.7238  -34.9739 C   0  0  0  0  0  0  0  0  0  0  0  0
  -16.9498  -24.3649  -39.2372 C   0  0  0  0  0  0  0  0  0  0  0  0
   -9.3223  -28.0955  -36.1298 C   0  0  0  0  0  0  0  0  0  0  0  0
  -17.6650  -25.2629  -37.1114 C   0  0  0  0  0  0  0  0  0  0  0  0
   -9.0453  -26.6047  -34.2489 C   0  0  0  0  0  0  0  0  0  0  0  0
  -15.6250  -24.3882  -38.8013 C   0  0  0  0  0  0  0  0  0  0  0  0
  -10.4184  -27.3479  -36.5607 C   0  0  0  0  0  0  0  0  0  0  0  0
  -16.3402  -25.2863  -36.6755 C   0  0  0  0  0  0  0  0  0  0  0  0
  -10.1412  -25.8572  -34.6798 C   0  0  0  0  0  0  0  0  0  0  0  0
  -15.3202  -24.8489  -37.5204 C   0  0  0  0  0  0  0  0  0  0  0  0
  -10.8278  -26.2289  -35.8358 C   0  0  0  0  0  0  0  0  0  0  0  0
  -13.1495  -25.9392  -36.7903 C   0  0  0  0  0  0  0  0  0  0  0  0
  -16.0427  -25.7847  -35.2987 C   0  0  0  0  0  0  0  0  0  0  0  0
  -10.5579  -24.6633  -33.8839 C   0  0  0  0  0  0  0  0  0  0  0  0
  -13.4514  -27.1891  -36.9957 N   0  0  0  0  0  0  0  0  0  0  0  0
  -13.9734  -24.8653  -37.0961 N   0  0  0  0  0  0  0  0  0  0  0  0
  -11.9381  -25.4849  -36.2864 N   0  0  0  0  0  0  0  0  0  0  0  0
  -19.0013  -24.7842  -38.7319 H   0  0  0  0  0  0  0  0  0  0  0  0
   -7.7823  -28.3059  -34.6385 H   0  0  0  0  0  0  0  0  0  0  0  0
  -17.1873  -24.0063  -40.2345 H   0  0  0  0  0  0  0  0  0  0  0  0
   -9.0034  -28.9668  -36.6943 H   0  0  0  0  0  0  0  0  0  0  0  0
  -18.4671  -25.6015  -36.4608 H   0  0  0  0  0  0  0  0  0  0  0  0
   -8.5036  -26.3236  -33.3496 H   0  0  0  0  0  0  0  0  0  0  0  0
  -14.8386  -24.0449  -39.4686 H   0  0  0  0  0  0  0  0  0  0  0  0
  -10.9455  -27.6472  -37.4631 H   0  0  0  0  0  0  0  0  0  0  0  0
  -15.6516  -26.8075  -35.3420 H   0  0  0  0  0  0  0  0  0  0  0  0
  -15.3029  -25.1479  -34.7986 H   0  0  0  0  0  0  0  0  0  0  0  0
  -16.9435  -25.7803  -34.6730 H   0  0  0  0  0  0  0  0  0  0  0  0
  -10.6129  -23.7785  -34.5282 H   0  0  0  0  0  0  0  0  0  0  0  0
  -11.5390  -24.8200  -33.4195 H   0  0  0  0  0  0  0  0  0  0  0  0
   -9.8484  -24.4619  -33.0720 H   0  0  0  0  0  0  0  0  0  0  0  0
  -14.3816  -27.2656  -37.4142 H   0  0  0  0  0  0  0  0  0  0  0  0
  -13.5655  -23.9384  -37.0112 H   0  0  0  0  0  0  0  0  0  0  0  0
  -11.8214  -24.4797  -36.1911 H   0  0  0  0  0  0  0  0  0  0  0  0
  1  3  1  0  0  0  0
  1  5  2  0  0  0  0
  2  4  2  0  0  0  0
  2  6  1  0  0  0  0
  3  7  2  0  0  0  0
  4  8  1  0  0  0  0
  5  9  1  0  0  0  0
  6 10  2  0  0  0  0
  7 11  1  0  0  0  0
  8 12  2  0  0  0  0
  9 11  2  0  0  0  0
  9 14  1  0  0  0  0
 10 12  1  0  0  0  0
 10 15  1  0  0  0  0
 11 17  1  0  0  0  0
 12 18  1  0  0  0  0
 13 16  2  0  0  0  0
 13 17  1  0  0  0  0
 13 18  1  0  0  0  0
  1 19  1  0  0  0  0
  2 20  1  0  0  0  0
  3 21  1  0  0  0  0
  4 22  1  0  0  0  0
  5 23  1  0  0  0  0
  6 24  1  0  0  0  0
  7 25  1  0  0  0  0
  8 26  1  0  0  0  0
 14 27  1  0  0  0  0
 14 28  1  0  0  0  0
 14 29  1  0  0  0  0
 15 30  1  0  0  0  0
 15 31  1  0  0  0  0
 15 32  1  0  0  0  0
 16 33  1  0  0  0  0
 17 34  1  0  0  0  0
 18 35  1  0  0  0  0
M  END
> <Name>
IA_195.cdx

> <SourceTag>
IA_195

> <Gold.Version>
5.2

> <Gold.Id.Protein>
6HGV|6HGV_protein|mol2

> <Gold.Goldscore.Fitness>
57.2058

> <Gold.Goldscore.Internal.Vdw>
-6.5434

> <Gold.Goldscore.Internal.Torsion>
-9.6804

> <Gold.Goldscore.External.Vdw>
40.7437

> <Gold.Goldscore.Internal.HBond>
0.0000

> <Gold.Goldscore.External.HBond>
4.2563

> <Gold.Goldscore.Internal.Correction>
-13.1508

> <Gold.Goldscore.Hbonds>
donor molecule, donor type, donor heavy atom, donor atom, acceptor molecule, acceptor atom, score
      L1  H    16    33       P1  1247  0.30
      L1  H    17    34       P1   854  0.51
      L1  H    18    35       P1   854  0.10

> <Gold.Goldscore.Internal.Vdw.Weighted>
-6.5434

> <Gold.Goldscore.Internal.Torsion.Weighted>
-9.6804

> <Gold.Goldscore.External.Vdw.Weighted>
56.0225

> <Gold.Goldscore.Internal.HBond.Weighted>
0.0000

> <Gold.Goldscore.External.HBond.Weighted>
4.2563

> <Gold.Goldscore.Internal.Correction.Weighted>
-13.1508

> <Gold.Protein.RotatedTorsions>
[ 3781 1176 1175 1172 ] final -127.42 input   60.00 | X-H torsion
[ 3847 1247 1246 1244 ] final  -10.47 input   60.00 | X-H torsion
[ 4507 1931 1930 1928 ] final  105.21 input   60.00 | X-H torsion
[ 3677 1070 1069 1066 ] final  -66.23 input   60.00 | X-H torsion
[ 3525  925  924  922 ] final  -11.55 input   59.99 | X-H torsion
[ 4531 1957 1955 1953 ] final   50.17 input   60.00 | X-H torsion

> <Gold.Protein.ActiveResidues>
 PHE267  PRO268  MET310  ASP335  TRP336  MET339  TYR343  THR360  PRO361  ILE363 
 PRO371  SER374  ILE375  ASN378  PHE381  TYR383  GLN384  PHE387  LEU408  LEU417 
 MET419  LEU428  TYR466  MET469  ASN472  ASP496  VAL498  LEU499  MET503  HIS524 
 TRP525 

> <Gold.Protein.RotatedAtoms>
   -3.6875  -29.5215  -30.3120 H   0  0  0  0  0  0  0  0  0  0  0  0  # atno 3525 bound_to 925 
  -12.2347  -23.8400  -31.2200 H   0  0  0  0  0  0  0  0  0  0  0  0  # atno 3677 bound_to 1070
   -9.4009  -36.3103  -33.6522 H   0  0  0  0  0  0  0  0  0  0  0  0  # atno 3781 bound_to 1176
  -15.8287  -28.5951  -37.0553 H   0  0  0  0  0  0  0  0  0  0  0  0  # atno 3847 bound_to 1247
  -12.4321  -24.0763  -39.1626 H   0  0  0  0  0  0  0  0  0  0  0  0  # atno 4507 bound_to 1931
   -3.0907  -33.2588  -36.6577 H   0  0  0  0  0  0  0  0  0  0  0  0  # atno 4531 bound_to 1957
   -9.9416  -37.1494  -32.3670 LP  0  0  0  0  0  0  0  0  0  0  0  0  # atno 5205 bound_to 1176
  -10.7727  -37.1774  -33.7724 LP  0  0  0  0  0  0  0  0  0  0  0  0  # atno 5206 bound_to 1176
  -15.3911  -27.1951  -37.7599 LP  0  0  0  0  0  0  0  0  0  0  0  0  # atno 5215 bound_to 1247
  -14.3401  -28.4433  -37.6949 LP  0  0  0  0  0  0  0  0  0  0  0  0  # atno 5216 bound_to 1247
  -13.4083  -25.3741  -39.2655 LP  0  0  0  0  0  0  0  0  0  0  0  0  # atno 5217 bound_to 1931
  -13.3589  -24.2874  -40.4834 LP  0  0  0  0  0  0  0  0  0  0  0  0  # atno 5218 bound_to 1931
  -11.0999  -22.6780  -31.1192 LP  0  0  0  0  0  0  0  0  0  0  0  0  # atno 5224 bound_to 1070
  -12.5175  -22.5097  -30.3264 LP  0  0  0  0  0  0  0  0  0  0  0  0  # atno 5225 bound_to 1070

$$$$
IA_137.cdx|SeH_inactivess_minimized|sdf|39|dock8
  -GOLD-   4172119283D 1   1.00000     0.00000

 44 45  0  0  0  0  0  0  0  0  1 V2000
  -19.1081  -23.7054  -38.4134 C   0  0  0  0  0  0  0  0  0  0  0  0
  -18.1997  -22.9036  -39.0982 C   0  0  0  0  0  0  0  0  0  0  0  0
  -18.6511  -24.6543  -37.4985 C   0  0  0  0  0  0  0  0  0  0  0  0
  -16.8308  -23.0477  -38.8706 C   0  0  0  0  0  0  0  0  0  0  0  0
  -16.7991  -25.7630  -36.3396 C   0  0  0  0  0  0  0  0  0  0  0  0
  -15.4302  -25.9072  -36.1120 C   0  0  0  0  0  0  0  0  0  0  0  0
  -14.9787  -24.1564  -37.7117 C   0  0  0  0  0  0  0  0  0  0  0  0
  -17.2767  -24.8131  -37.2569 C   0  0  0  0  0  0  0  0  0  0  0  0
  -16.3530  -23.9977  -37.9532 C   0  0  0  0  0  0  0  0  0  0  0  0
  -14.5217  -25.1054  -36.7967 C   0  0  0  0  0  0  0  0  0  0  0  0
  -12.4178  -26.4377  -36.3734 C   0  0  0  0  0  0  0  0  0  0  0  0
   -7.0768  -29.5857  -34.1313 C   0  0  0  0  0  0  0  0  0  0  0  0
  -11.8761  -31.3380  -34.3503 C   0  0  0  0  0  0  0  0  0  0  0  0
  -10.0697  -27.1833  -35.9492 C   0  0  0  0  0  0  0  0  0  0  0  0
   -8.3537  -29.2456  -34.8697 C   0  0  0  0  0  0  0  0  0  0  0  0
  -11.5171  -29.9364  -33.9051 C   0  0  0  0  0  0  0  0  0  0  0  0
  -10.3699  -28.0077  -34.6963 C   0  0  0  0  0  0  0  0  0  0  0  0
  -13.1529  -25.2511  -36.5682 N   0  0  0  0  0  0  0  0  0  0  0  0
  -11.0620  -26.1576  -36.1747 N   0  0  0  0  0  0  0  0  0  0  0  0
  -12.8749  -27.5782  -36.3727 O   0  0  0  0  0  0  0  0  0  0  0  0
   -9.1153  -28.3383  -34.0842 O   0  0  0  0  0  0  0  0  0  0  0  0
  -11.1162  -29.1792  -35.0387 O   0  0  0  0  0  0  0  0  0  0  0  0
  -20.1737  -23.5923  -38.5906 H   0  0  0  0  0  0  0  0  0  0  0  0
  -18.5563  -22.1653  -39.8105 H   0  0  0  0  0  0  0  0  0  0  0  0
  -19.3793  -25.2702  -36.9748 H   0  0  0  0  0  0  0  0  0  0  0  0
  -16.1387  -22.4106  -39.4175 H   0  0  0  0  0  0  0  0  0  0  0  0
  -17.4909  -26.4007  -35.7933 H   0  0  0  0  0  0  0  0  0  0  0  0
  -15.0853  -26.6500  -35.3968 H   0  0  0  0  0  0  0  0  0  0  0  0
  -14.2590  -23.5344  -38.2423 H   0  0  0  0  0  0  0  0  0  0  0  0
   -6.4780  -28.6880  -33.9535 H   0  0  0  0  0  0  0  0  0  0  0  0
   -7.3013  -30.0573  -33.1689 H   0  0  0  0  0  0  0  0  0  0  0  0
   -6.4785  -30.3016  -34.7046 H   0  0  0  0  0  0  0  0  0  0  0  0
  -10.9971  -31.8623  -34.7354 H   0  0  0  0  0  0  0  0  0  0  0  0
  -12.2936  -31.9127  -33.5170 H   0  0  0  0  0  0  0  0  0  0  0  0
  -12.6417  -31.3101  -35.1328 H   0  0  0  0  0  0  0  0  0  0  0  0
   -9.1041  -26.6758  -35.8742 H   0  0  0  0  0  0  0  0  0  0  0  0
  -10.0672  -27.8204  -36.8394 H   0  0  0  0  0  0  0  0  0  0  0  0
   -8.9488  -30.1474  -35.0426 H   0  0  0  0  0  0  0  0  0  0  0  0
   -8.1277  -28.7756  -35.8314 H   0  0  0  0  0  0  0  0  0  0  0  0
  -10.6914  -29.9612  -33.1878 H   0  0  0  0  0  0  0  0  0  0  0  0
  -12.3797  -29.4479  -33.4420 H   0  0  0  0  0  0  0  0  0  0  0  0
  -10.9375  -27.3846  -33.9923 H   0  0  0  0  0  0  0  0  0  0  0  0
  -12.5972  -24.3900  -36.5360 H   0  0  0  0  0  0  0  0  0  0  0  0
  -10.7611  -25.1882  -36.1895 H   0  0  0  0  0  0  0  0  0  0  0  0
  1  2  1  0  0  0  0
  1  3  2  0  0  0  0
  2  4  2  0  0  0  0
  3  8  1  0  0  0  0
  4  9  1  0  0  0  0
  5  6  1  0  0  0  0
  5  8  2  0  0  0  0
  6 10  2  0  0  0  0
  7  9  2  0  0  0  0
  7 10  1  0  0  0  0
  8  9  1  0  0  0  0
 10 18  1  0  0  0  0
 11 18  1  0  0  0  0
 11 19  1  0  0  0  0
 11 20  2  0  0  0  0
 12 15  1  0  0  0  0
 13 16  1  0  0  0  0
 14 17  1  0  0  0  0
 14 19  1  0  0  0  0
 15 21  1  0  0  0  0
 16 22  1  0  0  0  0
 17 21  1  0  0  0  0
 17 22  1  0  0  0  0
  1 23  1  0  0  0  0
  2 24  1  0  0  0  0
  3 25  1  0  0  0  0
  4 26  1  0  0  0  0
  5 27  1  0  0  0  0
  6 28  1  0  0  0  0
  7 29  1  0  0  0  0
 12 30  1  0  0  0  0
 12 31  1  0  0  0  0
 12 32  1  0  0  0  0
 13 33  1  0  0  0  0
 13 34  1  0  0  0  0
 13 35  1  0  0  0  0
 14 36  1  0  0  0  0
 14 37  1  0  0  0  0
 15 38  1  0  0  0  0
 15 39  1  0  0  0  0
 16 40  1  0  0  0  0
 16 41  1  0  0  0  0
 17 42  1  0  0  0  0
 18 43  1  0  0  0  0
 19 44  1  0  0  0  0
M  END
> <Name>
IA_137.cdx

> <SourceTag>
IA_137

> <Gold.Version>
5.2

> <Gold.Id.Protein>
6HGV|6HGV_protein|mol2

> <Gold.Goldscore.Fitness>
58.1494

> <Gold.Goldscore.Internal.Vdw>
-3.5805

> <Gold.Goldscore.Internal.Torsion>
-5.8125

> <Gold.Goldscore.External.Vdw>
41.8800

> <Gold.Goldscore.Internal.HBond>
0.0000

> <Gold.Goldscore.External.HBond>
1.9977

> <Gold.Goldscore.Internal.Correction>
-7.9597

> <Gold.Goldscore.Hbonds>
donor molecule, donor type, donor heavy atom, donor atom, acceptor molecule, acceptor atom, score
      P1  H  1256  3854       L1    22  0.76
      P1  H  1247  3847       L1    20  0.04
      L1  H    18    43       P1   854  0.07

> <Gold.Goldscore.Internal.Vdw.Weighted>
-3.5805

> <Gold.Goldscore.Internal.Torsion.Weighted>
-5.8125

> <Gold.Goldscore.External.Vdw.Weighted>
57.5851

> <Gold.Goldscore.Internal.HBond.Weighted>
0.0000

> <Gold.Goldscore.External.HBond.Weighted>
1.9977

> <Gold.Goldscore.Internal.Correction.Weighted>
-7.9597

> <Gold.Protein.RotatedTorsions>
[ 3781 1176 1175 1172 ] final  175.02 input   60.00 | X-H torsion
[ 3847 1247 1246 1244 ] final  118.16 input   60.00 | X-H torsion
[ 4507 1931 1930 1928 ] final  -58.67 input   60.00 | X-H torsion
[ 3677 1070 1069 1066 ] final  -99.36 input   60.00 | X-H torsion
[ 3525  925  924  922 ] final  -80.11 input   59.99 | X-H torsion
[ 4531 1957 1955 1953 ] final  171.43 input   60.00 | X-H torsion

> <Gold.Protein.ActiveResidues>
 PHE267  PRO268  MET310  ASP335  TRP336  MET339  TYR343  THR360  PRO361  ILE363 
 PRO371  SER374  ILE375  ASN378  PHE381  TYR383  GLN384  PHE387  LEU408  LEU417 
 MET419  LEU428  TYR466  MET469  ASN472  ASP496  VAL498  LEU499  MET503  HIS524 
 TRP525 

> <Gold.Protein.RotatedAtoms>
   -3.5434  -29.6788  -29.2792 H   0  0  0  0  0  0  0  0  0  0  0  0  # atno 3525 bound_to 925 
  -11.7443  -23.7581  -31.4145 H   0  0  0  0  0  0  0  0  0  0  0  0  # atno 3677 bound_to 1070
   -9.2933  -36.5604  -32.7927 H   0  0  0  0  0  0  0  0  0  0  0  0  # atno 3781 bound_to 1176
  -14.3184  -28.3167  -37.7545 H   0  0  0  0  0  0  0  0  0  0  0  0  # atno 3847 bound_to 1247
  -13.6785  -25.2346  -39.8985 H   0  0  0  0  0  0  0  0  0  0  0  0  # atno 4507 bound_to 1931
   -1.6015  -33.8580  -36.9512 H   0  0  0  0  0  0  0  0  0  0  0  0  # atno 4531 bound_to 1957
  -10.6560  -37.4485  -32.8408 LP  0  0  0  0  0  0  0  0  0  0  0  0  # atno 5205 bound_to 1176
  -10.1667  -36.6264  -34.1642 LP  0  0  0  0  0  0  0  0  0  0  0  0  # atno 5206 bound_to 1176
  -15.7340  -28.7003  -37.0495 LP  0  0  0  0  0  0  0  0  0  0  0  0  # atno 5215 bound_to 1247
  -15.5181  -27.2185  -37.7010 LP  0  0  0  0  0  0  0  0  0  0  0  0  # atno 5216 bound_to 1247
  -12.8851  -23.8471  -40.2037 LP  0  0  0  0  0  0  0  0  0  0  0  0  # atno 5217 bound_to 1931
  -12.6268  -24.6478  -38.8042 LP  0  0  0  0  0  0  0  0  0  0  0  0  # atno 5218 bound_to 1931
  -11.3266  -22.3109  -30.7987 LP  0  0  0  0  0  0  0  0  0  0  0  0  # atno 5224 bound_to 1070
  -12.7845  -22.9593  -30.4512 LP  0  0  0  0  0  0  0  0  0  0  0  0  # atno 5225 bound_to 1070

$$$$
IA_8|SeH_inactivess_minimized|sdf|157|dock4
  -GOLD-   4172122153D 1   1.00000     0.00000

 47 48  0  0  0  0  0  0  0  0  1 V2000
  -11.6030  -32.8684  -35.5535 C   0  0  0  0  0  0  0  0  0  0  0  0
  -11.6893  -34.0140  -33.7616 C   0  0  0  0  0  0  0  0  0  0  0  0
  -11.1694  -32.0256  -34.5572 C   0  0  0  0  0  0  0  0  0  0  0  0
  -12.5939  -27.5104  -35.2762 C   0  0  0  0  0  0  0  0  0  0  0  0
  -11.8941  -29.5065  -32.6518 C   0  0  0  0  0  0  0  0  0  0  0  0
  -13.9177  -25.7142  -37.3718 C   0  0  0  0  0  0  0  0  0  0  0  0
  -18.3642  -23.5313  -37.8978 C   0  0  0  0  0  0  0  0  0  0  0  0
  -17.9889  -24.9040  -37.3478 C   0  0  0  0  0  0  0  0  0  0  0  0
  -17.1301  -22.7174  -38.2745 C   0  0  0  0  0  0  0  0  0  0  0  0
  -17.0847  -25.6706  -38.3129 C   0  0  0  0  0  0  0  0  0  0  0  0
  -16.2245  -23.4804  -39.2414 C   0  0  0  0  0  0  0  0  0  0  0  0
  -15.8428  -24.8682  -38.7155 C   0  0  0  0  0  0  0  0  0  0  0  0
  -10.7041  -30.5895  -34.5690 C   0  0  0  0  0  0  0  0  0  0  0  0
  -12.0650  -26.1822  -35.7742 C   0  0  0  0  0  0  0  0  0  0  0  0
  -11.8058  -29.5998  -34.1681 C   0  0  2  0  0  0  0  0  0  0  0  0
  -11.9251  -34.1045  -35.0516 N   0  0  0  0  0  0  0  0  0  0  0  0
  -11.2303  -32.7736  -33.4152 N   0  0  0  0  0  0  0  0  0  0  0  0
  -11.5778  -28.2999  -34.7577 N   0  0  0  0  0  0  0  0  0  0  0  0
  -14.9092  -24.7688  -37.6156 N   0  0  0  0  0  0  0  0  0  0  0  0
  -13.1618  -25.3741  -36.2528 N   0  0  0  0  0  0  0  0  0  0  0  0
  -13.7847  -27.8111  -35.2979 O   0  0  0  0  0  0  0  0  0  0  0  0
  -12.4678  -30.3443  -31.9638 O   0  0  0  0  0  0  0  0  0  0  0  0
  -13.7308  -26.7203  -38.0549 O   0  0  0  0  0  0  0  0  0  0  0  0
  -11.2806  -28.4263  -32.1117 O   0  0  0  0  0  0  0  0  0  0  0  0
  -11.7004  -32.6503  -36.6074 H   0  0  0  0  0  0  0  0  0  0  0  0
  -11.8281  -34.7992  -33.0323 H   0  0  0  0  0  0  0  0  0  0  0  0
  -19.0021  -23.6552  -38.7816 H   0  0  0  0  0  0  0  0  0  0  0  0
  -18.9537  -22.9843  -37.1535 H   0  0  0  0  0  0  0  0  0  0  0  0
  -17.4829  -24.7854  -36.3820 H   0  0  0  0  0  0  0  0  0  0  0  0
  -18.8989  -25.4848  -37.1590 H   0  0  0  0  0  0  0  0  0  0  0  0
  -17.4403  -21.7714  -38.7328 H   0  0  0  0  0  0  0  0  0  0  0  0
  -16.5699  -22.4608  -37.3673 H   0  0  0  0  0  0  0  0  0  0  0  0
  -16.7932  -26.6244  -37.8569 H   0  0  0  0  0  0  0  0  0  0  0  0
  -17.6590  -25.9136  -39.2161 H   0  0  0  0  0  0  0  0  0  0  0  0
  -16.7484  -23.5948  -40.1990 H   0  0  0  0  0  0  0  0  0  0  0  0
  -15.3248  -22.8860  -39.4415 H   0  0  0  0  0  0  0  0  0  0  0  0
  -15.3083  -25.4119  -39.5029 H   0  0  0  0  0  0  0  0  0  0  0  0
  -10.3318  -30.3606  -35.5766 H   0  0  0  0  0  0  0  0  0  0  0  0
   -9.8347  -30.4761  -33.9071 H   0  0  0  0  0  0  0  0  0  0  0  0
  -11.3640  -26.3273  -36.6012 H   0  0  0  0  0  0  0  0  0  0  0  0
  -11.5709  -25.6518  -34.9558 H   0  0  0  0  0  0  0  0  0  0  0  0
  -12.7883  -29.9293  -34.5253 H   0  0  0  0  0  0  0  0  0  0  0  0
  -10.9821  -32.4686  -32.4832 H   0  0  0  0  0  0  0  0  0  0  0  0
  -10.6260  -27.9468  -34.7941 H   0  0  0  0  0  0  0  0  0  0  0  0
  -14.9806  -23.9718  -36.9919 H   0  0  0  0  0  0  0  0  0  0  0  0
  -13.3592  -24.4992  -35.7772 H   0  0  0  0  0  0  0  0  0  0  0  0
  -11.3238  -28.3744  -31.1337 H   0  0  0  0  0  0  0  0  0  0  0  0
  1  3  2  0  0  0  0
  1 16  1  0  0  0  0
  2 16  2  0  0  0  0
  2 17  1  0  0  0  0
  3 13  1  0  0  0  0
  3 17  1  0  0  0  0
  4 14  1  0  0  0  0
  4 18  1  0  0  0  0
  4 21  2  0  0  0  0
  5 15  1  0  0  0  0
  5 22  2  0  0  0  0
  5 24  1  0  0  0  0
  6 19  1  0  0  0  0
  6 20  1  0  0  0  0
  6 23  2  0  0  0  0
  7  8  1  0  0  0  0
  7  9  1  0  0  0  0
  8 10  1  0  0  0  0
  9 11  1  0  0  0  0
 10 12  1  0  0  0  0
 11 12  1  0  0  0  0
 12 19  1  0  0  0  0
 13 15  1  0  0  0  0
 14 20  1  0  0  0  0
 15 18  1  0  0  0  0
  1 25  1  0  0  0  0
  2 26  1  0  0  0  0
  7 27  1  0  0  0  0
  7 28  1  0  0  0  0
  8 29  1  0  0  0  0
  8 30  1  0  0  0  0
  9 31  1  0  0  0  0
  9 32  1  0  0  0  0
 10 33  1  0  0  0  0
 10 34  1  0  0  0  0
 11 35  1  0  0  0  0
 11 36  1  0  0  0  0
 12 37  1  0  0  0  0
 13 38  1  0  0  0  0
 13 39  1  0  0  0  0
 14 40  1  0  0  0  0
 14 41  1  0  0  0  0
 15 42  1  0  0  0  0
 17 43  1  0  0  0  0
 18 44  1  0  0  0  0
 19 45  1  0  0  0  0
 20 46  1  0  0  0  0
 24 47  1  0  0  0  0
M  END
> <Name>
IA_8

> <SourceTag>
IA_8

> <Gold.Version>
5.2

> <Gold.Id.Protein>
6HGV|6HGV_protein|mol2

> <Gold.Goldscore.Fitness>
58.1782

> <Gold.Goldscore.Internal.Vdw>
0.2484

> <Gold.Goldscore.Internal.Torsion>
-4.7756

> <Gold.Goldscore.External.Vdw>
39.4948

> <Gold.Goldscore.Internal.HBond>
0.0000

> <Gold.Goldscore.External.HBond>
6.6821

> <Gold.Goldscore.Internal.Correction>
-1.7180

> <Gold.Goldscore.Hbonds>
donor molecule, donor type, donor heavy atom, donor atom, acceptor molecule, acceptor atom, score
      L1  H    19    45       P1   853  0.19
      L1  H    20    46       P1   853  0.92

> <Gold.Goldscore.Internal.Vdw.Weighted>
0.2484

> <Gold.Goldscore.Internal.Torsion.Weighted>
-4.7756

> <Gold.Goldscore.External.Vdw.Weighted>
54.3053

> <Gold.Goldscore.Internal.HBond.Weighted>
0.0000

> <Gold.Goldscore.External.HBond.Weighted>
6.6821

> <Gold.Goldscore.Internal.Correction.Weighted>
-1.7180

> <Gold.Protein.RotatedTorsions>
[ 3781 1176 1175 1172 ] final  -89.65 input   60.00 | X-H torsion
[ 3847 1247 1246 1244 ] final   22.94 input   60.00 | X-H torsion
[ 4507 1931 1930 1928 ] final  110.90 input   60.00 | X-H torsion
[ 3677 1070 1069 1066 ] final  -94.45 input   60.00 | X-H torsion
[ 3525  925  924  922 ] final   58.35 input   59.99 | X-H torsion
[ 4531 1957 1955 1953 ] final  -79.06 input   60.00 | X-H torsion

> <Gold.Protein.ActiveResidues>
 PHE267  PRO268  MET310  ASP335  TRP336  MET339  TYR343  THR360  PRO361  ILE363 
 PRO371  SER374  ILE375  ASN378  PHE381  TYR383  GLN384  PHE387  LEU408  LEU417 
 MET419  LEU428  TYR466  MET469  ASN472  ASP496  VAL498  LEU499  MET503  HIS524 
 TRP525 

> <Gold.Protein.RotatedAtoms>
   -2.8296  -29.8445  -30.8693 H   0  0  0  0  0  0  0  0  0  0  0  0  # atno 3525 bound_to 925 
  -11.8166  -23.7872  -31.3955 H   0  0  0  0  0  0  0  0  0  0  0  0  # atno 3677 bound_to 1070
   -9.8258  -36.4393  -34.0646 H   0  0  0  0  0  0  0  0  0  0  0  0  # atno 3781 bound_to 1176
  -15.3911  -28.9040  -37.1089 H   0  0  0  0  0  0  0  0  0  0  0  0  # atno 3847 bound_to 1247
  -12.4324  -24.0170  -39.2342 H   0  0  0  0  0  0  0  0  0  0  0  0  # atno 4507 bound_to 1931
   -1.6973  -32.3323  -36.9066 H   0  0  0  0  0  0  0  0  0  0  0  0  # atno 4531 bound_to 1957
   -9.4755  -36.7836  -32.5132 LP  0  0  0  0  0  0  0  0  0  0  0  0  # atno 5205 bound_to 1176
  -10.8109  -37.4133  -33.2108 LP  0  0  0  0  0  0  0  0  0  0  0  0  # atno 5206 bound_to 1176
  -15.8319  -27.3903  -37.5121 LP  0  0  0  0  0  0  0  0  0  0  0  0  # atno 5215 bound_to 1247
  -14.3399  -27.9370  -37.8886 LP  0  0  0  0  0  0  0  0  0  0  0  0  # atno 5216 bound_to 1247
  -13.3535  -25.3578  -39.1915 LP  0  0  0  0  0  0  0  0  0  0  0  0  # atno 5217 bound_to 1931
  -13.4134  -24.3633  -40.4854 LP  0  0  0  0  0  0  0  0  0  0  0  0  # atno 5218 bound_to 1931
  -11.2775  -22.3531  -30.8469 LP  0  0  0  0  0  0  0  0  0  0  0  0  # atno 5224 bound_to 1070
  -12.7609  -22.8877  -30.4221 LP  0  0  0  0  0  0  0  0  0  0  0  0  # atno 5225 bound_to 1070

$$$$
IA_15|SeH_inactivess_minimized|sdf|51|dock2
  -GOLD-   4172119443D 1   1.00000     0.00000

 64 66  0  0  0  0  0  0  0  0  1 V2000
  -14.7621  -24.9757  -36.7738 C   0  0  0  0  0  0  0  0  0  0  0  0
  -17.5462  -25.2863  -37.6688 C   0  0  0  0  0  0  0  0  0  0  0  0
   -7.5969  -29.6527  -34.5055 C   0  0  0  0  0  0  0  0  0  0  0  0
   -3.9912  -32.6369  -32.0618 C   0  0  0  0  0  0  0  0  0  0  0  0
   -3.4369  -32.0413  -34.4340 C   0  0  0  0  0  0  0  0  0  0  0  0
   -4.7638  -34.1108  -33.9383 C   0  0  0  0  0  0  0  0  0  0  0  0
   -5.0973  -30.6680  -33.1516 C   0  0  0  0  0  0  0  0  0  0  0  0
   -6.4253  -32.7397  -32.6552 C   0  0  0  0  0  0  0  0  0  0  0  0
   -5.8705  -32.1437  -35.0313 C   0  0  0  0  0  0  0  0  0  0  0  0
   -3.7913  -31.4744  -33.0487 C   0  0  0  0  0  0  0  0  0  0  0  0
   -5.1247  -33.5546  -32.5503 C   0  0  0  0  0  0  0  0  0  0  0  0
   -4.5675  -32.9560  -34.9353 C   0  0  0  0  0  0  0  0  0  0  0  0
   -6.2489  -31.5698  -33.6486 C   0  0  0  0  0  0  0  0  0  0  0  0
  -18.4826  -22.9032  -39.4273 C   0  0  0  0  0  0  0  0  0  0  0  0
  -13.3015  -25.3459  -36.9699 C   0  0  0  0  0  0  0  0  0  0  0  0
  -12.7349  -26.2287  -35.8585 C   0  0  0  0  0  0  0  0  0  0  0  0
  -11.2544  -26.5974  -36.0179 C   0  0  0  0  0  0  0  0  0  0  0  0
  -10.7911  -27.6933  -35.0523 C   0  0  0  0  0  0  0  0  0  0  0  0
   -9.2834  -27.9227  -35.1110 C   0  0  0  0  0  0  0  0  0  0  0  0
  -16.7095  -24.0706  -38.0231 C   0  0  2  0  0  0  0  0  0  0  0  0
  -17.0892  -23.5207  -39.4015 C   0  0  1  0  0  0  0  0  0  0  0  0
  -15.3236  -24.4676  -37.9362 N   0  0  0  0  0  0  0  0  0  0  0  0
   -7.4758  -30.8093  -33.7419 N   0  0  0  0  0  0  0  0  0  0  0  0
   -8.8820  -29.1234  -34.4167 N   0  0  0  0  0  0  0  0  0  0  0  0
  -15.3619  -25.1415  -35.7151 O   0  0  0  0  0  0  0  0  0  0  0  0
  -17.2099  -26.4501  -37.8458 O   0  0  0  0  0  0  0  0  0  0  0  0
   -6.6889  -29.1597  -35.1733 O   0  0  0  0  0  0  0  0  0  0  0  0
  -18.7587  -24.9384  -37.1632 O   0  0  0  0  0  0  0  0  0  0  0  0
  -17.0252  -24.5537  -40.3835 O   0  0  0  0  0  0  0  0  0  0  0  0
   -3.0608  -33.2097  -31.9652 H   0  0  0  0  0  0  0  0  0  0  0  0
   -4.2293  -32.2456  -31.0651 H   0  0  0  0  0  0  0  0  0  0  0  0
   -3.2761  -31.2212  -35.1445 H   0  0  0  0  0  0  0  0  0  0  0  0
   -2.4968  -32.6040  -34.3788 H   0  0  0  0  0  0  0  0  0  0  0  0
   -3.8471  -34.7100  -33.8750 H   0  0  0  0  0  0  0  0  0  0  0  0
   -5.5579  -34.7800  -34.2916 H   0  0  0  0  0  0  0  0  0  0  0  0
   -5.3463  -30.2375  -32.1727 H   0  0  0  0  0  0  0  0  0  0  0  0
   -4.9584  -29.8192  -33.8341 H   0  0  0  0  0  0  0  0  0  0  0  0
   -7.2480  -33.3912  -32.9783 H   0  0  0  0  0  0  0  0  0  0  0  0
   -6.7069  -32.3579  -31.6650 H   0  0  0  0  0  0  0  0  0  0  0  0
   -5.7503  -31.3313  -35.7598 H   0  0  0  0  0  0  0  0  0  0  0  0
   -6.6785  -32.7817  -35.4131 H   0  0  0  0  0  0  0  0  0  0  0  0
   -2.9822  -30.8248  -32.6966 H   0  0  0  0  0  0  0  0  0  0  0  0
   -5.2617  -34.3813  -31.8445 H   0  0  0  0  0  0  0  0  0  0  0  0
   -4.3087  -33.3582  -35.9210 H   0  0  0  0  0  0  0  0  0  0  0  0
  -19.2543  -23.6616  -39.5969 H   0  0  0  0  0  0  0  0  0  0  0  0
  -18.5633  -22.1379  -40.2050 H   0  0  0  0  0  0  0  0  0  0  0  0
  -18.7092  -22.4418  -38.4599 H   0  0  0  0  0  0  0  0  0  0  0  0
  -13.2403  -25.8941  -37.9184 H   0  0  0  0  0  0  0  0  0  0  0  0
  -12.7029  -24.4369  -37.0889 H   0  0  0  0  0  0  0  0  0  0  0  0
  -12.8650  -25.7271  -34.8916 H   0  0  0  0  0  0  0  0  0  0  0  0
  -13.3253  -27.1521  -35.8103 H   0  0  0  0  0  0  0  0  0  0  0  0
  -10.6611  -25.6917  -35.8394 H   0  0  0  0  0  0  0  0  0  0  0  0
  -11.0541  -26.9010  -37.0513 H   0  0  0  0  0  0  0  0  0  0  0  0
  -11.0608  -27.4091  -34.0282 H   0  0  0  0  0  0  0  0  0  0  0  0
  -11.3063  -28.6341  -35.2767 H   0  0  0  0  0  0  0  0  0  0  0  0
   -8.9325  -27.9995  -36.1450 H   0  0  0  0  0  0  0  0  0  0  0  0
   -8.7594  -27.0877  -34.6352 H   0  0  0  0  0  0  0  0  0  0  0  0
  -16.8506  -23.3118  -37.2448 H   0  0  0  0  0  0  0  0  0  0  0  0
  -16.3646  -22.7554  -39.7029 H   0  0  0  0  0  0  0  0  0  0  0  0
  -14.7391  -24.3315  -38.7557 H   0  0  0  0  0  0  0  0  0  0  0  0
   -8.2863  -31.1348  -33.2262 H   0  0  0  0  0  0  0  0  0  0  0  0
   -9.5808  -29.6245  -33.8772 H   0  0  0  0  0  0  0  0  0  0  0  0
  -19.3753  -25.6849  -37.0046 H   0  0  0  0  0  0  0  0  0  0  0  0
  -17.2430  -24.1396  -41.2325 H   0  0  0  0  0  0  0  0  0  0  0  0
  1 15  1  0  0  0  0
  1 22  1  0  0  0  0
  1 25  2  0  0  0  0
  2 20  1  0  0  0  0
  2 26  2  0  0  0  0
  2 28  1  0  0  0  0
  3 23  1  0  0  0  0
  3 24  1  0  0  0  0
  3 27  2  0  0  0  0
  4 10  1  0  0  0  0
  4 11  1  0  0  0  0
  5 10  1  0  0  0  0
  5 12  1  0  0  0  0
  6 11  1  0  0  0  0
  6 12  1  0  0  0  0
  7 10  1  0  0  0  0
  7 13  1  0  0  0  0
  8 11  1  0  0  0  0
  8 13  1  0  0  0  0
  9 12  1  0  0  0  0
  9 13  1  0  0  0  0
 13 23  1  0  0  0  0
 14 21  1  0  0  0  0
 15 16  1  0  0  0  0
 16 17  1  0  0  0  0
 17 18  1  0  0  0  0
 18 19  1  0  0  0  0
 19 24  1  0  0  0  0
 20 21  1  0  0  0  0
 20 22  1  0  0  0  0
 21 29  1  0  0  0  0
  4 30  1  0  0  0  0
  4 31  1  0  0  0  0
  5 32  1  0  0  0  0
  5 33  1  0  0  0  0
  6 34  1  0  0  0  0
  6 35  1  0  0  0  0
  7 36  1  0  0  0  0
  7 37  1  0  0  0  0
  8 38  1  0  0  0  0
  8 39  1  0  0  0  0
  9 40  1  0  0  0  0
  9 41  1  0  0  0  0
 10 42  1  0  0  0  0
 11 43  1  0  0  0  0
 12 44  1  0  0  0  0
 14 45  1  0  0  0  0
 14 46  1  0  0  0  0
 14 47  1  0  0  0  0
 15 48  1  0  0  0  0
 15 49  1  0  0  0  0
 16 50  1  0  0  0  0
 16 51  1  0  0  0  0
 17 52  1  0  0  0  0
 17 53  1  0  0  0  0
 18 54  1  0  0  0  0
 18 55  1  0  0  0  0
 19 56  1  0  0  0  0
 19 57  1  0  0  0  0
 20 58  1  0  0  0  0
 21 59  1  0  0  0  0
 22 60  1  0  0  0  0
 23 61  1  0  0  0  0
 24 62  1  0  0  0  0
 28 63  1  0  0  0  0
 29 64  1  0  0  0  0
M  END
> <Name>
IA_15

> <SourceTag>
IA_15

> <Gold.Version>
5.2

> <Gold.Id.Protein>
6HGV|6HGV_protein|mol2

> <Gold.Goldscore.Fitness>
69.7865

> <Gold.Goldscore.Internal.Vdw>
-3.9966

> <Gold.Goldscore.Internal.Torsion>
-5.2011

> <Gold.Goldscore.External.Vdw>
51.8992

> <Gold.Goldscore.Internal.HBond>
0.0000

> <Gold.Goldscore.External.HBond>
1.2994

> <Gold.Goldscore.Internal.Correction>
-6.3234

> <Gold.Goldscore.Hbonds>
donor molecule, donor type, donor heavy atom, donor atom, acceptor molecule, acceptor atom, score
      P1  H  1247  3847       L1    26  0.35
      L1  H    22    60       P1  1931  0.30

> <Gold.Goldscore.Internal.Vdw.Weighted>
-3.9966

> <Gold.Goldscore.Internal.Torsion.Weighted>
-5.2011

> <Gold.Goldscore.External.Vdw.Weighted>
71.3614

> <Gold.Goldscore.Internal.HBond.Weighted>
0.0000

> <Gold.Goldscore.External.HBond.Weighted>
1.2994

> <Gold.Goldscore.Internal.Correction.Weighted>
-6.3234

> <Gold.Protein.RotatedTorsions>
[ 3781 1176 1175 1172 ] final  -30.85 input   60.00 | X-H torsion
[ 3847 1247 1246 1244 ] final  -89.40 input   60.00 | X-H torsion
[ 4507 1931 1930 1928 ] final  138.44 input   60.00 | X-H torsion
[ 3677 1070 1069 1066 ] final -107.68 input   60.00 | X-H torsion
[ 3525  925  924  922 ] final  -24.89 input   59.99 | X-H torsion
[ 4531 1957 1955 1953 ] final  -73.69 input   60.00 | X-H torsion

> <Gold.Protein.ActiveResidues>
 PHE267  PRO268  MET310  ASP335  TRP336  MET339  TYR343  THR360  PRO361  ILE363 
 PRO371  SER374  ILE375  ASN378  PHE381  TYR383  GLN384  PHE387  LEU408  LEU417 
 MET419  LEU428  TYR466  MET469  ASN472  ASP496  VAL498  LEU499  MET503  HIS524 
 TRP525 

> <Gold.Protein.RotatedAtoms>
   -3.7526  -29.5121  -30.1048 H   0  0  0  0  0  0  0  0  0  0  0  0  # atno 3525 bound_to 925 
  -11.6256  -23.6964  -31.4378 H   0  0  0  0  0  0  0  0  0  0  0  0  # atno 3677 bound_to 1070
  -10.5820  -36.9600  -34.0215 H   0  0  0  0  0  0  0  0  0  0  0  0  # atno 3781 bound_to 1176
  -15.9030  -27.4764  -37.4541 H   0  0  0  0  0  0  0  0  0  0  0  0  # atno 3847 bound_to 1247
  -12.5198  -23.8170  -39.6228 H   0  0  0  0  0  0  0  0  0  0  0  0  # atno 4507 bound_to 1931
   -1.7726  -32.2902  -36.8915 H   0  0  0  0  0  0  0  0  0  0  0  0  # atno 4531 bound_to 1957
   -9.2597  -36.3452  -33.2993 LP  0  0  0  0  0  0  0  0  0  0  0  0  # atno 5205 bound_to 1176
  -10.2652  -37.3274  -32.4682 LP  0  0  0  0  0  0  0  0  0  0  0  0  # atno 5206 bound_to 1176
  -14.3814  -27.8213  -37.9166 LP  0  0  0  0  0  0  0  0  0  0  0  0  # atno 5215 bound_to 1247
  -15.2750  -28.9437  -37.1365 LP  0  0  0  0  0  0  0  0  0  0  0  0  # atno 5216 bound_to 1247
  -13.0582  -25.1755  -38.9068 LP  0  0  0  0  0  0  0  0  0  0  0  0  # atno 5217 bound_to 1931
  -13.6206  -24.7470  -40.3787 LP  0  0  0  0  0  0  0  0  0  0  0  0  # atno 5218 bound_to 1931
  -11.4202  -22.2512  -30.7187 LP  0  0  0  0  0  0  0  0  0  0  0  0  # atno 5224 bound_to 1070
  -12.8106  -23.0811  -30.5077 LP  0  0  0  0  0  0  0  0  0  0  0  0  # atno 5225 bound_to 1070

$$$$
IA_66|SeH_inactivess_minimized|sdf|145|dock10
  -GOLD-   4172122 23D 1   1.00000     0.00000

 42 42  0  0  0  0  0  0  0  0  1 V2000
  -21.6143  -22.8393  -39.0839 C   0  0  0  0  0  0  0  0  0  0  0  0
  -13.7498  -25.8952  -37.1825 C   0  0  0  0  0  0  0  0  0  0  0  0
  -10.2358  -25.8134  -33.5553 C   0  0  0  0  0  0  0  0  0  0  0  0
  -10.0714  -25.3549  -35.0011 C   0  0  0  0  0  0  0  0  0  0  0  0
  -11.6697  -26.2411  -33.2583 C   0  0  0  0  0  0  0  0  0  0  0  0
  -10.5559  -26.4166  -35.9884 C   0  0  0  0  0  0  0  0  0  0  0  0
  -12.1568  -27.3044  -34.2426 C   0  0  0  0  0  0  0  0  0  0  0  0
  -11.9913  -26.8710  -35.7031 C   0  0  0  0  0  0  0  0  0  0  0  0
  -20.3402  -23.5311  -39.5107 C   0  0  0  0  0  0  0  0  0  0  0  0
  -19.2831  -23.5143  -38.4064 C   0  0  0  0  0  0  0  0  0  0  0  0
  -17.9491  -24.0703  -38.9081 C   0  0  0  0  0  0  0  0  0  0  0  0
  -16.8532  -24.0761  -37.8397 C   0  0  0  0  0  0  0  0  0  0  0  0
  -15.5081  -24.5764  -38.3544 C   0  0  0  0  0  0  0  0  0  0  0  0
  -12.9421  -25.8381  -36.0499 N   0  0  0  0  0  0  0  0  0  0  0  0
  -14.5736  -24.7726  -37.2790 N   0  0  0  0  0  0  0  0  0  0  0  0
  -21.8668  -22.4516  -37.9515 O   0  0  0  0  0  0  0  0  0  0  0  0
  -13.7419  -26.8167  -37.9976 O   0  0  0  0  0  0  0  0  0  0  0  0
  -22.4725  -22.6926  -40.1271 O   0  0  0  0  0  0  0  0  0  0  0  0
   -9.5577  -26.6535  -33.3607 H   0  0  0  0  0  0  0  0  0  0  0  0
   -9.9439  -25.0044  -32.8763 H   0  0  0  0  0  0  0  0  0  0  0  0
  -10.6301  -24.4237  -35.1555 H   0  0  0  0  0  0  0  0  0  0  0  0
   -9.0173  -25.1272  -35.1962 H   0  0  0  0  0  0  0  0  0  0  0  0
  -11.7316  -26.6323  -32.2364 H   0  0  0  0  0  0  0  0  0  0  0  0
  -12.3293  -25.3659  -33.3026 H   0  0  0  0  0  0  0  0  0  0  0  0
  -10.4737  -26.0266  -37.0101 H   0  0  0  0  0  0  0  0  0  0  0  0
   -9.8889  -27.2860  -35.9264 H   0  0  0  0  0  0  0  0  0  0  0  0
  -11.5838  -28.2258  -34.0780 H   0  0  0  0  0  0  0  0  0  0  0  0
  -13.2062  -27.5418  -34.0303 H   0  0  0  0  0  0  0  0  0  0  0  0
  -12.2322  -27.7184  -36.3550 H   0  0  0  0  0  0  0  0  0  0  0  0
  -19.9533  -23.0183  -40.3984 H   0  0  0  0  0  0  0  0  0  0  0  0
  -20.5849  -24.5666  -39.7720 H   0  0  0  0  0  0  0  0  0  0  0  0
  -19.6333  -24.1067  -37.5522 H   0  0  0  0  0  0  0  0  0  0  0  0
  -19.1536  -22.4864  -38.0481 H   0  0  0  0  0  0  0  0  0  0  0  0
  -18.0973  -25.1018  -39.2511 H   0  0  0  0  0  0  0  0  0  0  0  0
  -17.6110  -23.4939  -39.7780 H   0  0  0  0  0  0  0  0  0  0  0  0
  -17.1824  -24.7175  -37.0121 H   0  0  0  0  0  0  0  0  0  0  0  0
  -16.7384  -23.0693  -37.4188 H   0  0  0  0  0  0  0  0  0  0  0  0
  -15.0539  -23.8589  -39.0438 H   0  0  0  0  0  0  0  0  0  0  0  0
  -15.6161  -25.5356  -38.8699 H   0  0  0  0  0  0  0  0  0  0  0  0
  -13.0247  -25.0323  -35.4379 H   0  0  0  0  0  0  0  0  0  0  0  0
  -14.5408  -24.0842  -36.5297 H   0  0  0  0  0  0  0  0  0  0  0  0
  -23.3190  -22.2477  -39.9070 H   0  0  0  0  0  0  0  0  0  0  0  0
  1  9  1  0  0  0  0
  1 16  2  0  0  0  0
  1 18  1  0  0  0  0
  2 14  1  0  0  0  0
  2 15  1  0  0  0  0
  2 17  2  0  0  0  0
  3  4  1  0  0  0  0
  3  5  1  0  0  0  0
  4  6  1  0  0  0  0
  5  7  1  0  0  0  0
  6  8  1  0  0  0  0
  7  8  1  0  0  0  0
  8 14  1  0  0  0  0
  9 10  1  0  0  0  0
 10 11  1  0  0  0  0
 11 12  1  0  0  0  0
 12 13  1  0  0  0  0
 13 15  1  0  0  0  0
  3 19  1  0  0  0  0
  3 20  1  0  0  0  0
  4 21  1  0  0  0  0
  4 22  1  0  0  0  0
  5 23  1  0  0  0  0
  5 24  1  0  0  0  0
  6 25  1  0  0  0  0
  6 26  1  0  0  0  0
  7 27  1  0  0  0  0
  7 28  1  0  0  0  0
  8 29  1  0  0  0  0
  9 30  1  0  0  0  0
  9 31  1  0  0  0  0
 10 32  1  0  0  0  0
 10 33  1  0  0  0  0
 11 34  1  0  0  0  0
 11 35  1  0  0  0  0
 12 36  1  0  0  0  0
 12 37  1  0  0  0  0
 13 38  1  0  0  0  0
 13 39  1  0  0  0  0
 14 40  1  0  0  0  0
 15 41  1  0  0  0  0
 18 42  1  0  0  0  0
M  END
> <Name>
IA_66

> <SourceTag>
IA_66

> <Gold.Version>
5.2

> <Gold.Id.Protein>
6HGV|6HGV_protein|mol2

> <Gold.Goldscore.Fitness>
52.0797

> <Gold.Goldscore.Internal.Vdw>
-2.7848

> <Gold.Goldscore.Internal.Torsion>
-2.1073

> <Gold.Goldscore.External.Vdw>
34.1313

> <Gold.Goldscore.Internal.HBond>
0.0000

> <Gold.Goldscore.External.HBond>
6.5924

> <Gold.Goldscore.Internal.Correction>
-3.4489

> <Gold.Goldscore.Hbonds>
donor molecule, donor type, donor heavy atom, donor atom, acceptor molecule, acceptor atom, score
      L1  H    14    40       P1   853  0.17
      L1  H    15    41       P1   853  0.93

> <Gold.Goldscore.Internal.Vdw.Weighted>
-2.7848

> <Gold.Goldscore.Internal.Torsion.Weighted>
-2.1073

> <Gold.Goldscore.External.Vdw.Weighted>
46.9305

> <Gold.Goldscore.Internal.HBond.Weighted>
0.0000

> <Gold.Goldscore.External.HBond.Weighted>
6.5924

> <Gold.Goldscore.Internal.Correction.Weighted>
-3.4489

> <Gold.Protein.RotatedTorsions>
[ 3781 1176 1175 1172 ] final  -62.86 input   60.00 | X-H torsion
[ 3847 1247 1246 1244 ] final  -65.21 input   60.00 | X-H torsion
[ 4507 1931 1930 1928 ] final   88.10 input   60.00 | X-H torsion
[ 3677 1070 1069 1066 ] final -126.51 input   60.00 | X-H torsion
[ 3525  925  924  922 ] final -130.54 input   59.99 | X-H torsion
[ 4531 1957 1955 1953 ] final  116.46 input   60.00 | X-H torsion

> <Gold.Protein.ActiveResidues>
 PHE267  PRO268  MET310  ASP335  TRP336  MET339  TYR343  THR360  PRO361  ILE363 
 PRO371  SER374  ILE375  ASN378  PHE381  TYR383  GLN384  PHE387  LEU408  LEU417 
 MET419  LEU428  TYR466  MET469  ASN472  ASP496  VAL498  LEU499  MET503  HIS524 
 TRP525 

> <Gold.Protein.RotatedAtoms>
   -2.8646  -29.9994  -29.0093 H   0  0  0  0  0  0  0  0  0  0  0  0  # atno 3525 bound_to 925 
  -11.3856  -23.5062  -31.4474 H   0  0  0  0  0  0  0  0  0  0  0  0  # atno 3677 bound_to 1070
  -10.1934  -36.6491  -34.1591 H   0  0  0  0  0  0  0  0  0  0  0  0  # atno 3781 bound_to 1176
  -16.0501  -27.7929  -37.2752 H   0  0  0  0  0  0  0  0  0  0  0  0  # atno 3847 bound_to 1247
  -12.4684  -24.2819  -38.9781 H   0  0  0  0  0  0  0  0  0  0  0  0  # atno 4507 bound_to 1931
   -2.4337  -34.0317  -36.7960 H   0  0  0  0  0  0  0  0  0  0  0  0  # atno 4531 bound_to 1957
   -9.2794  -36.5389  -32.8172 LP  0  0  0  0  0  0  0  0  0  0  0  0  # atno 5205 bound_to 1176
  -10.6369  -37.4466  -32.8117 LP  0  0  0  0  0  0  0  0  0  0  0  0  # atno 5206 bound_to 1176
  -14.6017  -27.4957  -37.9547 LP  0  0  0  0  0  0  0  0  0  0  0  0  # atno 5215 bound_to 1247
  -14.9065  -28.9505  -37.2785 LP  0  0  0  0  0  0  0  0  0  0  0  0  # atno 5216 bound_to 1247
  -13.5511  -25.3755  -39.5071 LP  0  0  0  0  0  0  0  0  0  0  0  0  # atno 5217 bound_to 1931
  -13.1795  -24.0789  -40.4277 LP  0  0  0  0  0  0  0  0  0  0  0  0  # atno 5218 bound_to 1931
  -11.6698  -22.1765  -30.5534 LP  0  0  0  0  0  0  0  0  0  0  0  0  # atno 5224 bound_to 1070
  -12.8027  -23.3474  -30.6633 LP  0  0  0  0  0  0  0  0  0  0  0  0  # atno 5225 bound_to 1070

$$$$
IA_185.cdx|SeH_inactivess_minimized|sdf|85|dock10
  -GOLD-   4172120233D 1   1.00000     0.00000

 20 21  0  0  0  0  0  0  0  0  1 V2000
  -10.7681  -25.3503  -34.4820 C   0  0  0  0  0  0  0  0  0  0  0  0
  -16.3086  -25.5037  -35.9437 C   0  0  0  0  0  0  0  0  0  0  0  0
   -9.9836  -26.1197  -35.3339 C   0  0  0  0  0  0  0  0  0  0  0  0
  -16.5215  -25.0168  -37.2285 C   0  0  0  0  0  0  0  0  0  0  0  0
  -12.1002  -25.1101  -34.8001 C   0  0  0  0  0  0  0  0  0  0  0  0
  -15.0108  -25.7272  -35.4971 C   0  0  0  0  0  0  0  0  0  0  0  0
  -10.5739  -26.6218  -36.4825 C   0  0  0  0  0  0  0  0  0  0  0  0
  -15.4120  -24.7713  -38.0213 C   0  0  0  0  0  0  0  0  0  0  0  0
  -12.5957  -25.6572  -35.9726 C   0  0  0  0  0  0  0  0  0  0  0  0
  -13.9689  -25.4500  -36.3674 C   0  0  0  0  0  0  0  0  0  0  0  0
  -11.8642  -26.4096  -36.8251 N   0  0  0  0  0  0  0  0  0  0  0  0
  -14.1365  -24.9761  -37.6223 N   0  0  0  0  0  0  0  0  0  0  0  0
  -10.3421  -24.9378  -33.5723 H   0  0  0  0  0  0  0  0  0  0  0  0
  -17.1522  -25.7099  -35.2920 H   0  0  0  0  0  0  0  0  0  0  0  0
   -8.9423  -26.3179  -35.1077 H   0  0  0  0  0  0  0  0  0  0  0  0
  -17.5243  -24.8376  -37.5990 H   0  0  0  0  0  0  0  0  0  0  0  0
  -12.7200  -24.5117  -34.1400 H   0  0  0  0  0  0  0  0  0  0  0  0
  -14.8356  -26.1059  -34.4952 H   0  0  0  0  0  0  0  0  0  0  0  0
  -10.0056  -27.2279  -37.1804 H   0  0  0  0  0  0  0  0  0  0  0  0
  -15.5233  -24.3909  -39.0313 H   0  0  0  0  0  0  0  0  0  0  0  0
  1  3  1  0  0  0  0
  1  5  2  0  0  0  0
  2  4  2  0  0  0  0
  2  6  1  0  0  0  0
  3  7  2  0  0  0  0
  4  8  1  0  0  0  0
  5  9  1  0  0  0  0
  6 10  2  0  0  0  0
  7 11  1  0  0  0  0
  8 12  2  0  0  0  0
  9 10  1  0  0  0  0
  9 11  2  0  0  0  0
 10 12  1  0  0  0  0
  1 13  1  0  0  0  0
  2 14  1  0  0  0  0
  3 15  1  0  0  0  0
  4 16  1  0  0  0  0
  5 17  1  0  0  0  0
  6 18  1  0  0  0  0
  7 19  1  0  0  0  0
  8 20  1  0  0  0  0
M  END
> <Name>
IA_185.cdx

> <SourceTag>
IA_185

> <Gold.Version>
5.2

> <Gold.Id.Protein>
6HGV|6HGV_protein|mol2

> <Gold.Goldscore.Fitness>
40.7581

> <Gold.Goldscore.Internal.Vdw>
0.7496

> <Gold.Goldscore.Internal.Torsion>
-1.5064

> <Gold.Goldscore.External.Vdw>
29.6388

> <Gold.Goldscore.Internal.HBond>
0.0000

> <Gold.Goldscore.External.HBond>
0.3161

> <Gold.Goldscore.Internal.Correction>
-0.4454

> <Gold.Goldscore.Hbonds>
donor molecule, donor type, donor heavy atom, donor atom, acceptor molecule, acceptor atom, score
      P1  H  1931  4507       L1    12  0.16

> <Gold.Goldscore.Internal.Vdw.Weighted>
0.7496

> <Gold.Goldscore.Internal.Torsion.Weighted>
-1.5064

> <Gold.Goldscore.External.Vdw.Weighted>
40.7534

> <Gold.Goldscore.Internal.HBond.Weighted>
0.0000

> <Gold.Goldscore.External.HBond.Weighted>
0.3161

> <Gold.Goldscore.Internal.Correction.Weighted>
-0.4454

> <Gold.Protein.RotatedTorsions>
[ 3781 1176 1175 1172 ] final   37.31 input   60.00 | X-H torsion
[ 3847 1247 1246 1244 ] final  115.83 input   60.00 | X-H torsion
[ 4507 1931 1930 1928 ] final    6.15 input   60.00 | X-H torsion
[ 3677 1070 1069 1066 ] final -116.17 input   60.00 | X-H torsion
[ 3525  925  924  922 ] final   21.59 input   59.99 | X-H torsion
[ 4531 1957 1955 1953 ] final   32.50 input   60.00 | X-H torsion

> <Gold.Protein.ActiveResidues>
 PHE267  PRO268  MET310  ASP335  TRP336  MET339  TYR343  THR360  PRO361  ILE363 
 PRO371  SER374  ILE375  ASN378  PHE381  TYR383  GLN384  PHE387  LEU408  LEU417 
 MET419  LEU428  TYR466  MET469  ASN472  ASP496  VAL498  LEU499  MET503  HIS524 
 TRP525 

> <Gold.Protein.RotatedAtoms>
   -3.3579  -29.6279  -30.7185 H   0  0  0  0  0  0  0  0  0  0  0  0  # atno 3525 bound_to 925 
  -11.5114  -23.6187  -31.4496 H   0  0  0  0  0  0  0  0  0  0  0  0  # atno 3677 bound_to 1070
  -10.7743  -37.4318  -33.1042 H   0  0  0  0  0  0  0  0  0  0  0  0  # atno 3781 bound_to 1176
  -14.3242  -28.3510  -37.7392 H   0  0  0  0  0  0  0  0  0  0  0  0  # atno 3847 bound_to 1247
  -13.1913  -25.2733  -39.0220 H   0  0  0  0  0  0  0  0  0  0  0  0  # atno 4507 bound_to 1931
   -3.0849  -32.9712  -36.6538 H   0  0  0  0  0  0  0  0  0  0  0  0  # atno 4531 bound_to 1957
   -9.9206  -36.4816  -34.1124 LP  0  0  0  0  0  0  0  0  0  0  0  0  # atno 5205 bound_to 1176
   -9.4107  -36.7158  -32.5788 LP  0  0  0  0  0  0  0  0  0  0  0  0  # atno 5206 bound_to 1176
  -15.7618  -28.6740  -37.0486 LP  0  0  0  0  0  0  0  0  0  0  0  0  # atno 5215 bound_to 1247
  -15.4845  -27.2103  -37.7174 LP  0  0  0  0  0  0  0  0  0  0  0  0  # atno 5216 bound_to 1247
  -13.5415  -24.5752  -40.4496 LP  0  0  0  0  0  0  0  0  0  0  0  0  # atno 5217 bound_to 1931
  -12.4611  -23.8807  -39.4411 LP  0  0  0  0  0  0  0  0  0  0  0  0  # atno 5218 bound_to 1931
  -11.5271  -22.2067  -30.6408 LP  0  0  0  0  0  0  0  0  0  0  0  0  # atno 5224 bound_to 1070
  -12.8186  -23.2038  -30.5737 LP  0  0  0  0  0  0  0  0  0  0  0  0  # atno 5225 bound_to 1070

$$$$
IA_9|SeH_inactivess_minimized|sdf|168|dock5
  -GOLD-   41821 8203D 1   1.00000     0.00000

 50 51  0  0  0  0  0  0  0  0  1 V2000
   -8.0062  -32.7632  -34.7559 C   0  0  0  0  0  0  0  0  0  0  0  0
   -7.4594  -31.8082  -33.8989 C   0  0  0  0  0  0  0  0  0  0  0  0
   -8.8198  -32.3643  -35.8165 C   0  0  0  0  0  0  0  0  0  0  0  0
   -7.7262  -30.4542  -34.1025 C   0  0  0  0  0  0  0  0  0  0  0  0
   -9.0863  -31.0105  -36.0201 C   0  0  0  0  0  0  0  0  0  0  0  0
   -8.5396  -30.0554  -35.1631 C   0  0  0  0  0  0  0  0  0  0  0  0
  -11.9152  -26.7151  -36.0699 C   0  0  0  0  0  0  0  0  0  0  0  0
  -10.3155  -28.0947  -33.4327 C   0  0  0  0  0  0  0  0  0  0  0  0
  -14.3342  -25.5693  -37.5796 C   0  0  0  0  0  0  0  0  0  0  0  0
  -18.1024  -23.1040  -39.3483 C   0  0  0  0  0  0  0  0  0  0  0  0
  -18.2630  -23.5021  -37.8843 C   0  0  0  0  0  0  0  0  0  0  0  0
  -16.7674  -23.5737  -39.9179 C   0  0  0  0  0  0  0  0  0  0  0  0
  -18.0650  -25.0044  -37.6831 C   0  0  0  0  0  0  0  0  0  0  0  0
  -16.5670  -25.0763  -39.7202 C   0  0  0  0  0  0  0  0  0  0  0  0
  -16.7347  -25.5027  -38.2579 C   0  0  0  0  0  0  0  0  0  0  0  0
   -8.8283  -28.5901  -35.3839 C   0  0  0  0  0  0  0  0  0  0  0  0
  -12.0575  -25.3058  -36.6042 C   0  0  0  0  0  0  0  0  0  0  0  0
  -10.2435  -28.1866  -34.9499 C   0  0  2  0  0  0  0  0  0  0  0  0
  -10.6423  -26.9419  -35.5669 N   0  0  0  0  0  0  0  0  0  0  0  0
  -15.6201  -25.0527  -37.4539 N   0  0  0  0  0  0  0  0  0  0  0  0
  -13.4569  -24.9592  -36.6866 N   0  0  0  0  0  0  0  0  0  0  0  0
  -12.8388  -27.5248  -36.0537 O   0  0  0  0  0  0  0  0  0  0  0  0
  -10.4659  -27.0345  -32.8346 O   0  0  0  0  0  0  0  0  0  0  0  0
  -14.0116  -26.4502  -38.3757 O   0  0  0  0  0  0  0  0  0  0  0  0
  -10.2091  -29.2799  -32.7853 O   0  0  0  0  0  0  0  0  0  0  0  0
   -7.7979  -33.8174  -34.5983 H   0  0  0  0  0  0  0  0  0  0  0  0
   -6.8252  -32.1182  -33.0738 H   0  0  0  0  0  0  0  0  0  0  0  0
   -9.2453  -33.1080  -36.4844 H   0  0  0  0  0  0  0  0  0  0  0  0
   -7.2956  -29.7167  -33.4302 H   0  0  0  0  0  0  0  0  0  0  0  0
   -9.7203  -30.7091  -36.8498 H   0  0  0  0  0  0  0  0  0  0  0  0
  -18.9214  -23.5376  -39.9354 H   0  0  0  0  0  0  0  0  0  0  0  0
  -18.1824  -22.0154  -39.4455 H   0  0  0  0  0  0  0  0  0  0  0  0
  -17.5399  -22.9484  -37.2731 H   0  0  0  0  0  0  0  0  0  0  0  0
  -19.2604  -23.2139  -37.5331 H   0  0  0  0  0  0  0  0  0  0  0  0
  -16.7204  -23.3356  -40.9867 H   0  0  0  0  0  0  0  0  0  0  0  0
  -15.9500  -23.0247  -39.4351 H   0  0  0  0  0  0  0  0  0  0  0  0
  -18.1321  -25.2393  -36.6140 H   0  0  0  0  0  0  0  0  0  0  0  0
  -18.8875  -25.5375  -38.1770 H   0  0  0  0  0  0  0  0  0  0  0  0
  -17.3016  -25.6135  -40.3337 H   0  0  0  0  0  0  0  0  0  0  0  0
  -15.5752  -25.3620  -40.0910 H   0  0  0  0  0  0  0  0  0  0  0  0
  -16.7111  -26.5970  -38.2019 H   0  0  0  0  0  0  0  0  0  0  0  0
   -8.6771  -28.3701  -36.4492 H   0  0  0  0  0  0  0  0  0  0  0  0
   -8.0825  -27.9815  -34.8545 H   0  0  0  0  0  0  0  0  0  0  0  0
  -11.6278  -25.2239  -37.6067 H   0  0  0  0  0  0  0  0  0  0  0  0
  -11.5625  -24.6034  -35.9282 H   0  0  0  0  0  0  0  0  0  0  0  0
  -10.9845  -28.9326  -35.2599 H   0  0  0  0  0  0  0  0  0  0  0  0
   -9.9564  -26.1958  -35.6355 H   0  0  0  0  0  0  0  0  0  0  0  0
  -15.7835  -24.3257  -36.7654 H   0  0  0  0  0  0  0  0  0  0  0  0
  -13.8028  -24.2079  -36.0980 H   0  0  0  0  0  0  0  0  0  0  0  0
  -10.2686  -29.2224  -31.8085 H   0  0  0  0  0  0  0  0  0  0  0  0
  1  2  2  0  0  0  0
  1  3  1  0  0  0  0
  2  4  1  0  0  0  0
  3  5  2  0  0  0  0
  4  6  2  0  0  0  0
  5  6  1  0  0  0  0
  6 16  1  0  0  0  0
  7 17  1  0  0  0  0
  7 19  1  0  0  0  0
  7 22  2  0  0  0  0
  8 18  1  0  0  0  0
  8 23  2  0  0  0  0
  8 25  1  0  0  0  0
  9 20  1  0  0  0  0
  9 21  1  0  0  0  0
  9 24  2  0  0  0  0
 10 11  1  0  0  0  0
 10 12  1  0  0  0  0
 11 13  1  0  0  0  0
 12 14  1  0  0  0  0
 13 15  1  0  0  0  0
 14 15  1  0  0  0  0
 15 20  1  0  0  0  0
 16 18  1  0  0  0  0
 17 21  1  0  0  0  0
 18 19  1  0  0  0  0
  1 26  1  0  0  0  0
  2 27  1  0  0  0  0
  3 28  1  0  0  0  0
  4 29  1  0  0  0  0
  5 30  1  0  0  0  0
 10 31  1  0  0  0  0
 10 32  1  0  0  0  0
 11 33  1  0  0  0  0
 11 34  1  0  0  0  0
 12 35  1  0  0  0  0
 12 36  1  0  0  0  0
 13 37  1  0  0  0  0
 13 38  1  0  0  0  0
 14 39  1  0  0  0  0
 14 40  1  0  0  0  0
 15 41  1  0  0  0  0
 16 42  1  0  0  0  0
 16 43  1  0  0  0  0
 17 44  1  0  0  0  0
 17 45  1  0  0  0  0
 18 46  1  0  0  0  0
 19 47  1  0  0  0  0
 20 48  1  0  0  0  0
 21 49  1  0  0  0  0
 25 50  1  0  0  0  0
M  END
> <Name>
IA_9

> <SourceTag>
IA_9

> <Gold.Version>
5.2

> <Gold.Id.Protein>
6HGV|6HGV_protein|mol2

> <Gold.Goldscore.Fitness>
57.1332

> <Gold.Goldscore.Internal.Vdw>
-0.1225

> <Gold.Goldscore.Internal.Torsion>
-3.7839

> <Gold.Goldscore.External.Vdw>
39.1134

> <Gold.Goldscore.Internal.HBond>
0.0000

> <Gold.Goldscore.External.HBond>
4.7837

> <Gold.Goldscore.Internal.Correction>
-2.4750

> <Gold.Goldscore.Hbonds>
donor molecule, donor type, donor heavy atom, donor atom, acceptor molecule, acceptor atom, score
      L1  H    20    48       P1  2419  0.02
      L1  H    21    49       P1   853  0.79

> <Gold.Goldscore.Internal.Vdw.Weighted>
-0.1225

> <Gold.Goldscore.Internal.Torsion.Weighted>
-3.7839

> <Gold.Goldscore.External.Vdw.Weighted>
53.7809

> <Gold.Goldscore.Internal.HBond.Weighted>
0.0000

> <Gold.Goldscore.External.HBond.Weighted>
4.7837

> <Gold.Goldscore.Internal.Correction.Weighted>
-2.4750

> <Gold.Protein.RotatedTorsions>
[ 3781 1176 1175 1172 ] final -117.65 input   60.00 | X-H torsion
[ 3847 1247 1246 1244 ] final  -20.61 input   60.00 | X-H torsion
[ 4507 1931 1930 1928 ] final  122.92 input   60.00 | X-H torsion
[ 3677 1070 1069 1066 ] final -108.79 input   60.00 | X-H torsion
[ 3525  925  924  922 ] final  -24.67 input   59.99 | X-H torsion
[ 4531 1957 1955 1953 ] final  -59.41 input   60.00 | X-H torsion

> <Gold.Protein.ActiveResidues>
 PHE267  PRO268  MET310  ASP335  TRP336  MET339  TYR343  THR360  PRO361  ILE363 
 PRO371  SER374  ILE375  ASN378  PHE381  TYR383  GLN384  PHE387  LEU408  LEU417 
 MET419  LEU428  TYR466  MET469  ASN472  ASP496  VAL498  LEU499  MET503  HIS524 
 TRP525 

> <Gold.Protein.RotatedAtoms>
   -3.7518  -29.5120  -30.1084 H   0  0  0  0  0  0  0  0  0  0  0  0  # atno 3525 bound_to 925 
  -11.6102  -23.6871  -31.4400 H   0  0  0  0  0  0  0  0  0  0  0  0  # atno 3677 bound_to 1070
   -9.4909  -36.3213  -33.7832 H   0  0  0  0  0  0  0  0  0  0  0  0  # atno 3781 bound_to 1176
  -15.9247  -28.4612  -37.0688 H   0  0  0  0  0  0  0  0  0  0  0  0  # atno 3847 bound_to 1247
  -12.4534  -23.9105  -39.3975 H   0  0  0  0  0  0  0  0  0  0  0  0  # atno 4507 bound_to 1931
   -1.9888  -32.2148  -36.8491 H   0  0  0  0  0  0  0  0  0  0  0  0  # atno 4531 bound_to 1957
   -9.8083  -37.0599  -32.3684 LP  0  0  0  0  0  0  0  0  0  0  0  0  # atno 5205 bound_to 1176
  -10.8153  -37.2558  -33.6390 LP  0  0  0  0  0  0  0  0  0  0  0  0  # atno 5206 bound_to 1176
  -15.2364  -27.1932  -37.8213 LP  0  0  0  0  0  0  0  0  0  0  0  0  # atno 5215 bound_to 1247
  -14.3982  -28.5800  -37.6198 LP  0  0  0  0  0  0  0  0  0  0  0  0  # atno 5216 bound_to 1247
  -13.2288  -25.2984  -39.0503 LP  0  0  0  0  0  0  0  0  0  0  0  0  # atno 5217 bound_to 1931
  -13.5169  -24.5299  -40.4621 LP  0  0  0  0  0  0  0  0  0  0  0  0  # atno 5218 bound_to 1931
  -11.4335  -22.2444  -30.7082 LP  0  0  0  0  0  0  0  0  0  0  0  0  # atno 5224 bound_to 1070
  -12.8127  -23.0973  -30.5159 LP  0  0  0  0  0  0  0  0  0  0  0  0  # atno 5225 bound_to 1070

$$$$
IA_87.cdx|SeH_inactivess_minimized|sdf|165|dock8
  -GOLD-   4172122303D 1   1.00000     0.00000

 50 49  0  0  0  0  0  0  0  0  1 V2000
  -14.6149  -24.6000  -37.7361 C   0  0  0  0  0  0  0  0  0  0  0  0
   -4.8268  -32.8865  -35.3223 C   0  0  0  0  0  0  0  0  0  0  0  0
  -19.3687  -23.4661  -38.2939 C   0  0  0  0  0  0  0  0  0  0  0  0
   -4.0819  -31.5783  -35.1038 C   0  0  0  0  0  0  0  0  0  0  0  0
  -18.2497  -24.4156  -37.8904 C   0  0  0  0  0  0  0  0  0  0  0  0
   -4.9482  -30.5620  -34.3587 C   0  0  0  0  0  0  0  0  0  0  0  0
   -6.2439  -30.2096  -35.0954 C   0  0  0  0  0  0  0  0  0  0  0  0
   -7.0318  -29.0772  -34.4333 C   0  0  0  0  0  0  0  0  0  0  0  0
   -8.3139  -28.7674  -35.2094 C   0  0  0  0  0  0  0  0  0  0  0  0
   -8.9743  -27.4837  -34.7034 C   0  0  0  0  0  0  0  0  0  0  0  0
  -10.2369  -27.1554  -35.5021 C   0  0  0  0  0  0  0  0  0  0  0  0
  -10.8975  -25.8715  -34.9962 C   0  0  0  0  0  0  0  0  0  0  0  0
  -12.3466  -25.7651  -35.4803 C   0  0  0  0  0  0  0  0  0  0  0  0
  -16.9161  -24.0633  -38.5384 C   0  0  0  0  0  0  0  0  0  0  0  0
  -12.4474  -25.5743  -36.9902 C   0  0  0  0  0  0  0  0  0  0  0  0
  -15.8706  -24.9968  -38.1883 N   0  0  0  0  0  0  0  0  0  0  0  0
  -13.7961  -25.6994  -37.4695 N   0  0  0  0  0  0  0  0  0  0  0  0
  -14.2663  -23.4296  -37.5877 O   0  0  0  0  0  0  0  0  0  0  0  0
   -5.2709  -33.2311  -34.3832 H   0  0  0  0  0  0  0  0  0  0  0  0
   -4.1507  -33.6674  -35.6846 H   0  0  0  0  0  0  0  0  0  0  0  0
   -5.6317  -32.7619  -36.0537 H   0  0  0  0  0  0  0  0  0  0  0  0
  -19.1173  -22.4321  -38.0375 H   0  0  0  0  0  0  0  0  0  0  0  0
  -19.5335  -23.5161  -39.3750 H   0  0  0  0  0  0  0  0  0  0  0  0
  -20.3098  -23.7252  -37.7989 H   0  0  0  0  0  0  0  0  0  0  0  0
   -3.1677  -31.7870  -34.5383 H   0  0  0  0  0  0  0  0  0  0  0  0
   -3.7798  -31.1702  -36.0752 H   0  0  0  0  0  0  0  0  0  0  0  0
  -18.5296  -25.4331  -38.1869 H   0  0  0  0  0  0  0  0  0  0  0  0
  -18.1503  -24.4117  -36.7984 H   0  0  0  0  0  0  0  0  0  0  0  0
   -5.2151  -30.9713  -33.3764 H   0  0  0  0  0  0  0  0  0  0  0  0
   -4.3707  -29.6481  -34.1728 H   0  0  0  0  0  0  0  0  0  0  0  0
   -6.8714  -31.1091  -35.1306 H   0  0  0  0  0  0  0  0  0  0  0  0
   -6.0153  -29.9439  -36.1348 H   0  0  0  0  0  0  0  0  0  0  0  0
   -7.2846  -29.3577  -33.4037 H   0  0  0  0  0  0  0  0  0  0  0  0
   -6.4172  -28.1715  -34.3828 H   0  0  0  0  0  0  0  0  0  0  0  0
   -9.0156  -29.6045  -35.1101 H   0  0  0  0  0  0  0  0  0  0  0  0
   -8.0812  -28.6650  -36.2764 H   0  0  0  0  0  0  0  0  0  0  0  0
   -9.2291  -27.5952  -33.6425 H   0  0  0  0  0  0  0  0  0  0  0  0
   -8.2647  -26.6508  -34.7799 H   0  0  0  0  0  0  0  0  0  0  0  0
  -10.9467  -27.9881  -35.4260 H   0  0  0  0  0  0  0  0  0  0  0  0
   -9.9814  -27.0440  -36.5629 H   0  0  0  0  0  0  0  0  0  0  0  0
  -10.3285  -25.0026  -35.3490 H   0  0  0  0  0  0  0  0  0  0  0  0
  -10.8671  -25.8555  -33.9005 H   0  0  0  0  0  0  0  0  0  0  0  0
  -12.8838  -26.6819  -35.2083 H   0  0  0  0  0  0  0  0  0  0  0  0
  -12.8454  -24.9335  -34.9673 H   0  0  0  0  0  0  0  0  0  0  0  0
  -17.0122  -24.0847  -39.6285 H   0  0  0  0  0  0  0  0  0  0  0  0
  -16.5839  -23.0624  -38.2452 H   0  0  0  0  0  0  0  0  0  0  0  0
  -12.0736  -24.5911  -37.2927 H   0  0  0  0  0  0  0  0  0  0  0  0
  -11.8539  -26.3372  -37.5039 H   0  0  0  0  0  0  0  0  0  0  0  0
  -16.0606  -25.9902  -38.2761 H   0  0  0  0  0  0  0  0  0  0  0  0
  -14.1915  -26.6317  -37.5793 H   0  0  0  0  0  0  0  0  0  0  0  0
  1 16  1  0  0  0  0
  1 17  1  0  0  0  0
  1 18  2  0  0  0  0
  2  4  1  0  0  0  0
  3  5  1  0  0  0  0
  4  6  1  0  0  0  0
  5 14  1  0  0  0  0
  6  7  1  0  0  0  0
  7  8  1  0  0  0  0
  8  9  1  0  0  0  0
  9 10  1  0  0  0  0
 10 11  1  0  0  0  0
 11 12  1  0  0  0  0
 12 13  1  0  0  0  0
 13 15  1  0  0  0  0
 14 16  1  0  0  0  0
 15 17  1  0  0  0  0
  2 19  1  0  0  0  0
  2 20  1  0  0  0  0
  2 21  1  0  0  0  0
  3 22  1  0  0  0  0
  3 23  1  0  0  0  0
  3 24  1  0  0  0  0
  4 25  1  0  0  0  0
  4 26  1  0  0  0  0
  5 27  1  0  0  0  0
  5 28  1  0  0  0  0
  6 29  1  0  0  0  0
  6 30  1  0  0  0  0
  7 31  1  0  0  0  0
  7 32  1  0  0  0  0
  8 33  1  0  0  0  0
  8 34  1  0  0  0  0
  9 35  1  0  0  0  0
  9 36  1  0  0  0  0
 10 37  1  0  0  0  0
 10 38  1  0  0  0  0
 11 39  1  0  0  0  0
 11 40  1  0  0  0  0
 12 41  1  0  0  0  0
 12 42  1  0  0  0  0
 13 43  1  0  0  0  0
 13 44  1  0  0  0  0
 14 45  1  0  0  0  0
 14 46  1  0  0  0  0
 15 47  1  0  0  0  0
 15 48  1  0  0  0  0
 16 49  1  0  0  0  0
 17 50  1  0  0  0  0
M  END
> <Name>
IA_87.cdx

> <SourceTag>
IA_87

> <Gold.Version>
5.2

> <Gold.Id.Protein>
6HGV|6HGV_protein|mol2

> <Gold.Goldscore.Fitness>
63.2182

> <Gold.Goldscore.Internal.Vdw>
-7.3548

> <Gold.Goldscore.Internal.Torsion>
-2.6385

> <Gold.Goldscore.External.Vdw>
46.1012

> <Gold.Goldscore.Internal.HBond>
0.0000

> <Gold.Goldscore.External.HBond>
2.3952

> <Gold.Goldscore.Internal.Correction>
-7.4271

> <Gold.Goldscore.Hbonds>
donor molecule, donor type, donor heavy atom, donor atom, acceptor molecule, acceptor atom, score
      L1  H    16    49       P1  1247  0.20
      L1  H    17    50       P1  1247  1.00

> <Gold.Goldscore.Internal.Vdw.Weighted>
-7.3548

> <Gold.Goldscore.Internal.Torsion.Weighted>
-2.6385

> <Gold.Goldscore.External.Vdw.Weighted>
63.3891

> <Gold.Goldscore.Internal.HBond.Weighted>
0.0000

> <Gold.Goldscore.External.HBond.Weighted>
2.3952

> <Gold.Goldscore.Internal.Correction.Weighted>
-7.4271

> <Gold.Protein.RotatedTorsions>
[ 3781 1176 1175 1172 ] final  153.67 input   60.00 | X-H torsion
[ 3847 1247 1246 1244 ] final   -0.72 input   60.00 | X-H torsion
[ 4507 1931 1930 1928 ] final  173.46 input   60.00 | X-H torsion
[ 3677 1070 1069 1066 ] final  -95.61 input   60.00 | X-H torsion
[ 3525  925  924  922 ] final   31.94 input   59.99 | X-H torsion
[ 4531 1957 1955 1953 ] final  -77.41 input   60.00 | X-H torsion

> <Gold.Protein.ActiveResidues>
 PHE267  PRO268  MET310  ASP335  TRP336  MET339  TYR343  THR360  PRO361  ILE363 
 PRO371  SER374  ILE375  ASN378  PHE381  TYR383  GLN384  PHE387  LEU408  LEU417 
 MET419  LEU428  TYR466  MET469  ASN472  ASP496  VAL498  LEU499  MET503  HIS524 
 TRP525 

> <Gold.Protein.RotatedAtoms>
   -3.2187  -29.6814  -30.7977 H   0  0  0  0  0  0  0  0  0  0  0  0  # atno 3525 bound_to 925 
  -11.7994  -23.7808  -31.4004 H   0  0  0  0  0  0  0  0  0  0  0  0  # atno 3677 bound_to 1070
   -9.4464  -36.7538  -32.5490 H   0  0  0  0  0  0  0  0  0  0  0  0  # atno 3781 bound_to 1176
  -15.7173  -28.7089  -37.0554 H   0  0  0  0  0  0  0  0  0  0  0  0  # atno 3847 bound_to 1247
  -12.8033  -23.8140  -40.1096 H   0  0  0  0  0  0  0  0  0  0  0  0  # atno 4507 bound_to 1931
   -1.7200  -32.3186  -36.9020 H   0  0  0  0  0  0  0  0  0  0  0  0  # atno 4531 bound_to 1957
  -10.7979  -37.4241  -33.1589 LP  0  0  0  0  0  0  0  0  0  0  0  0  # atno 5205 bound_to 1176
   -9.8706  -36.4561  -34.0915 LP  0  0  0  0  0  0  0  0  0  0  0  0  # atno 5206 bound_to 1176
  -15.5341  -27.2230  -37.6930 LP  0  0  0  0  0  0  0  0  0  0  0  0  # atno 5215 bound_to 1247
  -14.3092  -28.3007  -37.7615 LP  0  0  0  0  0  0  0  0  0  0  0  0  # atno 5216 bound_to 1247
  -12.6941  -24.7570  -38.7879 LP  0  0  0  0  0  0  0  0  0  0  0  0  # atno 5217 bound_to 1931
  -13.6992  -25.1686  -40.0074 LP  0  0  0  0  0  0  0  0  0  0  0  0  # atno 5218 bound_to 1931
  -11.2887  -22.3427  -30.8354 LP  0  0  0  0  0  0  0  0  0  0  0  0  # atno 5224 bound_to 1070
  -12.7670  -22.9047  -30.4287 LP  0  0  0  0  0  0  0  0  0  0  0  0  # atno 5225 bound_to 1070

$$$$
IA_33.cdx|SeH_inactivess_minimized|sdf|119|dock9
  -GOLD-   4172121193D 1   1.00000     0.00000

 35 35  0  0  0  0  0  0  0  0  1 V2000
  -17.7456  -25.1717  -37.2450 C   0  0  0  0  0  0  0  0  0  0  0  0
  -16.4024  -24.8790  -37.0090 C   0  0  0  0  0  0  0  0  0  0  0  0
  -18.2967  -24.9493  -38.5070 C   0  0  0  0  0  0  0  0  0  0  0  0
  -16.1613  -24.1412  -39.2970 C   0  0  0  0  0  0  0  0  0  0  0  0
  -15.6103  -24.3636  -38.0350 C   0  0  0  0  0  0  0  0  0  0  0  0
  -17.5046  -24.4340  -39.5329 C   0  0  0  0  0  0  0  0  0  0  0  0
  -10.0867  -27.3524  -33.8521 C   0  0  0  0  0  0  0  0  0  0  0  0
  -13.5205  -25.1717  -37.3773 C   0  0  0  0  0  0  0  0  0  0  0  0
  -12.1401  -29.5292  -33.7408 C   0  0  0  0  0  0  0  0  0  0  0  0
   -9.8252  -25.8887  -34.1313 C   0  0  0  0  0  0  0  0  0  0  0  0
  -11.0384  -25.1602  -34.7146 C   0  0  0  0  0  0  0  0  0  0  0  0
  -11.4223  -25.6241  -36.1177 C   0  0  0  0  0  0  0  0  0  0  0  0
  -11.4849  -28.7886  -32.5946 C   0  0  0  0  0  0  0  0  0  0  0  0
  -12.4300  -24.7138  -36.7046 N   0  0  0  0  0  0  0  0  0  0  0  0
   -9.4489  -28.2844  -34.3222 O   0  0  0  0  0  0  0  0  0  0  0  0
  -13.8177  -26.3443  -37.5855 O   0  0  0  0  0  0  0  0  0  0  0  0
  -14.2635  -24.0713  -37.7990 O   0  0  0  0  0  0  0  0  0  0  0  0
  -11.1649  -27.4600  -33.0202 O   0  0  0  0  0  0  0  0  0  0  0  0
  -18.1856  -24.1604  -41.0893 Cl  0  0  0  0  0  0  0  0  0  0  0  0
  -18.3620  -25.5734  -36.4460 H   0  0  0  0  0  0  0  0  0  0  0  0
  -15.9786  -25.0541  -36.0240 H   0  0  0  0  0  0  0  0  0  0  0  0
  -19.3450  -25.1816  -38.6762 H   0  0  0  0  0  0  0  0  0  0  0  0
  -15.5372  -23.7387  -40.0915 H   0  0  0  0  0  0  0  0  0  0  0  0
  -12.4957  -30.5117  -33.4182 H   0  0  0  0  0  0  0  0  0  0  0  0
  -12.9874  -28.9584  -34.1350 H   0  0  0  0  0  0  0  0  0  0  0  0
  -11.4344  -29.6628  -34.5674 H   0  0  0  0  0  0  0  0  0  0  0  0
   -9.5544  -25.4227  -33.1769 H   0  0  0  0  0  0  0  0  0  0  0  0
   -8.9701  -25.8005  -34.8100 H   0  0  0  0  0  0  0  0  0  0  0  0
  -11.9013  -25.2937  -34.0509 H   0  0  0  0  0  0  0  0  0  0  0  0
  -10.8200  -24.0851  -34.7376 H   0  0  0  0  0  0  0  0  0  0  0  0
  -10.5535  -25.6655  -36.7811 H   0  0  0  0  0  0  0  0  0  0  0  0
  -11.8583  -26.6275  -36.0712 H   0  0  0  0  0  0  0  0  0  0  0  0
  -10.5630  -29.2924  -32.2891 H   0  0  0  0  0  0  0  0  0  0  0  0
  -12.1625  -28.7305  -31.7375 H   0  0  0  0  0  0  0  0  0  0  0  0
  -12.3052  -23.7274  -36.6034 H   0  0  0  0  0  0  0  0  0  0  0  0
  1  2  1  0  0  0  0
  1  3  2  0  0  0  0
  2  5  2  0  0  0  0
  3  6  1  0  0  0  0
  4  5  1  0  0  0  0
  4  6  2  0  0  0  0
  5 17  1  0  0  0  0
  6 19  1  0  0  0  0
  7 10  1  0  0  0  0
  7 15  2  0  0  0  0
  7 18  1  0  0  0  0
  8 14  1  0  0  0  0
  8 16  2  0  0  0  0
  8 17  1  0  0  0  0
  9 13  1  0  0  0  0
 10 11  1  0  0  0  0
 11 12  1  0  0  0  0
 12 14  1  0  0  0  0
 13 18  1  0  0  0  0
  1 20  1  0  0  0  0
  2 21  1  0  0  0  0
  3 22  1  0  0  0  0
  4 23  1  0  0  0  0
  9 24  1  0  0  0  0
  9 25  1  0  0  0  0
  9 26  1  0  0  0  0
 10 27  1  0  0  0  0
 10 28  1  0  0  0  0
 11 29  1  0  0  0  0
 11 30  1  0  0  0  0
 12 31  1  0  0  0  0
 12 32  1  0  0  0  0
 13 33  1  0  0  0  0
 13 34  1  0  0  0  0
 14 35  1  0  0  0  0
M  END
> <Name>
IA_33.cdx

> <SourceTag>
IA_33

> <Gold.Version>
5.2

> <Gold.Id.Protein>
6HGV|6HGV_protein|mol2

> <Gold.Goldscore.Fitness>
54.8891

> <Gold.Goldscore.Internal.Vdw>
-1.1164

> <Gold.Goldscore.Internal.Torsion>
-5.6497

> <Gold.Goldscore.External.Vdw>
39.1149

> <Gold.Goldscore.Internal.HBond>
0.0000

> <Gold.Goldscore.External.HBond>
4.3469

> <Gold.Goldscore.Internal.Correction>
-3.5253

> <Gold.Goldscore.Hbonds>
donor molecule, donor type, donor heavy atom, donor atom, acceptor molecule, acceptor atom, score
      P1  H  1247  3847       L1    16  0.50
      L1  H    14    35       P1   854  0.56

> <Gold.Goldscore.Internal.Vdw.Weighted>
-1.1164

> <Gold.Goldscore.Internal.Torsion.Weighted>
-5.6497

> <Gold.Goldscore.External.Vdw.Weighted>
53.7830

> <Gold.Goldscore.Internal.HBond.Weighted>
0.0000

> <Gold.Goldscore.External.HBond.Weighted>
4.3469

> <Gold.Goldscore.Internal.Correction.Weighted>
-3.5253

> <Gold.Protein.RotatedTorsions>
[ 3781 1176 1175 1172 ] final  -40.79 input   60.00 | X-H torsion
[ 3847 1247 1246 1244 ] final -171.43 input   60.00 | X-H torsion
[ 4507 1931 1930 1928 ] final  175.57 input   60.00 | X-H torsion
[ 3677 1070 1069 1066 ] final -108.65 input   60.00 | X-H torsion
[ 3525  925  924  922 ] final -124.97 input   59.99 | X-H torsion
[ 4531 1957 1955 1953 ] final  -31.03 input   60.00 | X-H torsion

> <Gold.Protein.ActiveResidues>
 PHE267  PRO268  MET310  ASP335  TRP336  MET339  TYR343  THR360  PRO361  ILE363 
 PRO371  SER374  ILE375  ASN378  PHE381  TYR383  GLN384  PHE387  LEU408  LEU417 
 MET419  LEU428  TYR466  MET469  ASN472  ASP496  VAL498  LEU499  MET503  HIS524 
 TRP525 

> <Gold.Protein.RotatedAtoms>
   -2.9481  -29.9634  -29.0052 H   0  0  0  0  0  0  0  0  0  0  0  0  # atno 3525 bound_to 925 
  -11.6121  -23.6883  -31.4398 H   0  0  0  0  0  0  0  0  0  0  0  0  # atno 3677 bound_to 1070
  -10.4743  -36.8616  -34.0924 H   0  0  0  0  0  0  0  0  0  0  0  0  # atno 3781 bound_to 1176
  -14.7803  -27.3588  -37.9397 H   0  0  0  0  0  0  0  0  0  0  0  0  # atno 3847 bound_to 1247
  -12.8247  -23.8232  -40.1350 H   0  0  0  0  0  0  0  0  0  0  0  0  # atno 4507 bound_to 1931
   -2.4395  -32.2343  -36.7638 H   0  0  0  0  0  0  0  0  0  0  0  0  # atno 4531 bound_to 1957
   -9.2393  -36.3899  -33.1436 LP  0  0  0  0  0  0  0  0  0  0  0  0  # atno 5205 bound_to 1176
  -10.3941  -37.3817  -32.5526 LP  0  0  0  0  0  0  0  0  0  0  0  0  # atno 5206 bound_to 1176
  -14.7147  -28.8850  -37.3789 LP  0  0  0  0  0  0  0  0  0  0  0  0  # atno 5215 bound_to 1247
  -16.0723  -27.9985  -37.1851 LP  0  0  0  0  0  0  0  0  0  0  0  0  # atno 5216 bound_to 1247
  -12.6753  -24.7280  -38.7907 LP  0  0  0  0  0  0  0  0  0  0  0  0  # atno 5217 bound_to 1931
  -13.6964  -25.1884  -39.9790 LP  0  0  0  0  0  0  0  0  0  0  0  0  # atno 5218 bound_to 1931
  -11.4318  -22.2452  -30.7096 LP  0  0  0  0  0  0  0  0  0  0  0  0  # atno 5224 bound_to 1070
  -12.8125  -23.0952  -30.5148 LP  0  0  0  0  0  0  0  0  0  0  0  0  # atno 5225 bound_to 1070

$$$$
IA_129.cdx|SeH_inactivess_minimized|sdf|30|dock8
  -GOLD-   4172119113D 1   1.00000     0.00000

 33 33  0  0  0  0  0  0  0  0  1 V2000
  -16.6829  -25.4293  -35.4694 C   0  0  0  0  0  0  0  0  0  0  0  0
  -15.6477  -24.4618  -37.4263 C   0  0  0  0  0  0  0  0  0  0  0  0
  -17.9423  -25.2132  -36.0289 C   0  0  0  0  0  0  0  0  0  0  0  0
  -16.9070  -24.2459  -37.9858 C   0  0  0  0  0  0  0  0  0  0  0  0
  -15.5356  -25.0535  -36.1681 C   0  0  0  0  0  0  0  0  0  0  0  0
  -18.0543  -24.6217  -37.2871 C   0  0  0  0  0  0  0  0  0  0  0  0
  -10.2502  -27.4417  -34.8821 C   0  0  0  0  0  0  0  0  0  0  0  0
  -13.0597  -25.5395  -36.2703 C   0  0  0  0  0  0  0  0  0  0  0  0
  -12.0965  -30.1431  -33.2441 C   0  0  0  0  0  0  0  0  0  0  0  0
  -11.9496  -25.2311  -34.0367 C   0  0  0  0  0  0  0  0  0  0  0  0
  -10.7264  -26.3837  -35.8495 C   0  0  0  0  0  0  0  0  0  0  0  0
  -10.8871  -29.2818  -33.5389 C   0  0  0  0  0  0  0  0  0  0  0  0
  -14.2562  -25.2733  -35.5998 N   0  0  0  0  0  0  0  0  0  0  0  0
  -11.9485  -25.7120  -35.4124 N   0  0  0  0  0  0  0  0  0  0  0  0
   -9.0805  -27.5161  -34.5199 O   0  0  0  0  0  0  0  0  0  0  0  0
  -12.9575  -25.6416  -37.4947 O   0  0  0  0  0  0  0  0  0  0  0  0
  -11.2541  -28.2697  -34.4824 O   0  0  0  0  0  0  0  0  0  0  0  0
  -19.6084  -24.3553  -37.9774 Cl  0  0  0  0  0  0  0  0  0  0  0  0
  -16.6072  -25.8908  -34.4882 H   0  0  0  0  0  0  0  0  0  0  0  0
  -14.7602  -24.1652  -37.9794 H   0  0  0  0  0  0  0  0  0  0  0  0
  -18.8277  -25.5111  -35.4734 H   0  0  0  0  0  0  0  0  0  0  0  0
  -16.9796  -23.7838  -38.9670 H   0  0  0  0  0  0  0  0  0  0  0  0
  -12.4759  -30.6088  -34.1579 H   0  0  0  0  0  0  0  0  0  0  0  0
  -11.8444  -30.9294  -32.5250 H   0  0  0  0  0  0  0  0  0  0  0  0
  -12.8958  -29.5448  -32.7944 H   0  0  0  0  0  0  0  0  0  0  0  0
  -12.5172  -25.9147  -33.4001 H   0  0  0  0  0  0  0  0  0  0  0  0
  -12.4067  -24.2392  -33.9834 H   0  0  0  0  0  0  0  0  0  0  0  0
  -10.9260  -25.1658  -33.6583 H   0  0  0  0  0  0  0  0  0  0  0  0
  -10.9357  -26.8534  -36.8141 H   0  0  0  0  0  0  0  0  0  0  0  0
   -9.9520  -25.6198  -35.9545 H   0  0  0  0  0  0  0  0  0  0  0  0
  -10.0807  -29.8857  -33.9658 H   0  0  0  0  0  0  0  0  0  0  0  0
  -10.5278  -28.7986  -32.6254 H   0  0  0  0  0  0  0  0  0  0  0  0
  -14.2029  -25.2325  -34.5871 H   0  0  0  0  0  0  0  0  0  0  0  0
  1  3  1  0  0  0  0
  1  5  2  0  0  0  0
  2  4  2  0  0  0  0
  2  5  1  0  0  0  0
  3  6  2  0  0  0  0
  4  6  1  0  0  0  0
  5 13  1  0  0  0  0
  6 18  1  0  0  0  0
  7 11  1  0  0  0  0
  7 15  2  0  0  0  0
  7 17  1  0  0  0  0
  8 13  1  0  0  0  0
  8 14  1  0  0  0  0
  8 16  2  0  0  0  0
  9 12  1  0  0  0  0
 10 14  1  0  0  0  0
 11 14  1  0  0  0  0
 12 17  1  0  0  0  0
  1 19  1  0  0  0  0
  2 20  1  0  0  0  0
  3 21  1  0  0  0  0
  4 22  1  0  0  0  0
  9 23  1  0  0  0  0
  9 24  1  0  0  0  0
  9 25  1  0  0  0  0
 10 26  1  0  0  0  0
 10 27  1  0  0  0  0
 10 28  1  0  0  0  0
 11 29  1  0  0  0  0
 11 30  1  0  0  0  0
 12 31  1  0  0  0  0
 12 32  1  0  0  0  0
 13 33  1  0  0  0  0
M  END
> <Name>
IA_129.cdx

> <SourceTag>
IA_129

> <Gold.Version>
5.2

> <Gold.Id.Protein>
6HGV|6HGV_protein|mol2

> <Gold.Goldscore.Fitness>
50.1201

> <Gold.Goldscore.Internal.Vdw>
-6.5559

> <Gold.Goldscore.Internal.Torsion>
-6.1918

> <Gold.Goldscore.External.Vdw>
34.8881

> <Gold.Goldscore.Internal.HBond>
0.0000

> <Gold.Goldscore.External.HBond>
2.1816

> <Gold.Goldscore.Internal.Correction>
-12.7150

> <Gold.Goldscore.Hbonds>
donor molecule, donor type, donor heavy atom, donor atom, acceptor molecule, acceptor atom, score
      P1  H  1247  3847       L1    16  0.13
      P1  H  1931  4507       L1    16  0.96

> <Gold.Goldscore.Internal.Vdw.Weighted>
-6.5559

> <Gold.Goldscore.Internal.Torsion.Weighted>
-6.1918

> <Gold.Goldscore.External.Vdw.Weighted>
47.9712

> <Gold.Goldscore.Internal.HBond.Weighted>
0.0000

> <Gold.Goldscore.External.HBond.Weighted>
2.1816

> <Gold.Goldscore.Internal.Correction.Weighted>
-12.7150

> <Gold.Protein.RotatedTorsions>
[ 3781 1176 1175 1172 ] final -140.95 input   60.00 | X-H torsion
[ 3847 1247 1246 1244 ] final  168.88 input   60.00 | X-H torsion
[ 4507 1931 1930 1928 ] final   31.46 input   60.00 | X-H torsion
[ 3677 1070 1069 1066 ] final -108.97 input   60.00 | X-H torsion
[ 3525  925  924  922 ] final  118.13 input   59.99 | X-H torsion
[ 4531 1957 1955 1953 ] final   44.18 input   60.00 | X-H torsion

> <Gold.Protein.ActiveResidues>
 PHE267  PRO268  MET310  ASP335  TRP336  MET339  TYR343  THR360  PRO361  ILE363 
 PRO371  SER374  ILE375  ASN378  PHE381  TYR383  GLN384  PHE387  LEU408  LEU417 
 MET419  LEU428  TYR466  MET469  ASN472  ASP496  VAL498  LEU499  MET503  HIS524 
 TRP525 

> <Gold.Protein.RotatedAtoms>
   -2.1329  -30.1951  -30.3571 H   0  0  0  0  0  0  0  0  0  0  0  0  # atno 3525 bound_to 925 
  -11.6077  -23.6855  -31.4404 H   0  0  0  0  0  0  0  0  0  0  0  0  # atno 3677 bound_to 1070
   -9.3070  -36.3223  -33.4528 H   0  0  0  0  0  0  0  0  0  0  0  0  # atno 3781 bound_to 1176
  -14.5419  -27.5721  -37.9516 H   0  0  0  0  0  0  0  0  0  0  0  0  # atno 3847 bound_to 1247
  -12.9142  -25.0363  -38.8338 H   0  0  0  0  0  0  0  0  0  0  0  0  # atno 4507 bound_to 1931
   -3.0985  -33.1613  -36.6545 H   0  0  0  0  0  0  0  0  0  0  0  0  # atno 4531 bound_to 1957
  -10.1301  -37.2598  -32.4079 LP  0  0  0  0  0  0  0  0  0  0  0  0  # atno 5205 bound_to 1176
  -10.6787  -37.0549  -33.9323 LP  0  0  0  0  0  0  0  0  0  0  0  0  # atno 5206 bound_to 1176
  -14.9944  -28.9634  -37.2391 LP  0  0  0  0  0  0  0  0  0  0  0  0  # atno 5215 bound_to 1247
  -16.0327  -27.7052  -37.3129 LP  0  0  0  0  0  0  0  0  0  0  0  0  # atno 5216 bound_to 1247
  -13.6767  -24.9201  -40.2667 LP  0  0  0  0  0  0  0  0  0  0  0  0  # atno 5217 bound_to 1931
  -12.6050  -23.7744  -39.8135 LP  0  0  0  0  0  0  0  0  0  0  0  0  # atno 5218 bound_to 1931
  -11.4357  -22.2433  -30.7065 LP  0  0  0  0  0  0  0  0  0  0  0  0  # atno 5224 bound_to 1070
  -12.8131  -23.0999  -30.5172 LP  0  0  0  0  0  0  0  0  0  0  0  0  # atno 5225 bound_to 1070

$$$$
IA_115.cdx|SeH_inactivess_minimized|sdf|17|dock9
  -GOLD-   4172118543D 1   1.00000     0.00000

 31 32  0  0  0  0  0  0  0  0  1 V2000
  -14.4040  -25.5641  -36.6006 C   0  0  0  0  0  0  0  0  0  0  0  0
  -10.3890  -26.9662  -34.1126 C   0  0  0  0  0  0  0  0  0  0  0  0
  -10.9825  -25.6125  -33.7317 C   0  0  0  0  0  0  0  0  0  0  0  0
  -11.1902  -27.6487  -35.2181 C   0  0  0  0  0  0  0  0  0  0  0  0
  -11.1494  -24.7075  -34.9531 C   0  0  0  0  0  0  0  0  0  0  0  0
  -11.3564  -26.7390  -36.4361 C   0  0  0  0  0  0  0  0  0  0  0  0
  -18.1554  -25.2486  -36.0680 C   0  0  0  0  0  0  0  0  0  0  0  0
  -17.5339  -24.5532  -37.2425 C   0  0  0  0  0  0  0  0  0  0  0  0
  -11.9524  -25.3705  -36.0802 C   0  0  0  0  0  0  0  0  0  0  0  0
  -16.8842  -25.7827  -36.6691 C   0  0  0  0  0  0  0  0  0  0  0  0
  -13.3553  -25.5158  -35.6854 N   0  0  0  0  0  0  0  0  0  0  0  0
  -15.6305  -25.7060  -35.9566 N   0  0  0  0  0  0  0  0  0  0  0  0
  -14.2662  -25.4915  -37.8211 O   0  0  0  0  0  0  0  0  0  0  0  0
   -9.3498  -26.8346  -34.4381 H   0  0  0  0  0  0  0  0  0  0  0  0
  -10.3646  -27.6151  -33.2271 H   0  0  0  0  0  0  0  0  0  0  0  0
  -11.9538  -25.7587  -33.2471 H   0  0  0  0  0  0  0  0  0  0  0  0
  -10.3301  -25.1200  -33.0007 H   0  0  0  0  0  0  0  0  0  0  0  0
  -10.6829  -28.5725  -35.5204 H   0  0  0  0  0  0  0  0  0  0  0  0
  -12.1760  -27.9349  -34.8359 H   0  0  0  0  0  0  0  0  0  0  0  0
  -11.6426  -23.7685  -34.6464 H   0  0  0  0  0  0  0  0  0  0  0  0
  -10.1544  -24.4115  -35.3258 H   0  0  0  0  0  0  0  0  0  0  0  0
  -10.3777  -26.6051  -36.9271 H   0  0  0  0  0  0  0  0  0  0  0  0
  -11.9961  -27.2418  -37.1823 H   0  0  0  0  0  0  0  0  0  0  0  0
  -18.1043  -24.7539  -35.1058 H   0  0  0  0  0  0  0  0  0  0  0  0
  -19.0670  -25.8086  -36.2364 H   0  0  0  0  0  0  0  0  0  0  0  0
  -18.0270  -24.6446  -38.2025 H   0  0  0  0  0  0  0  0  0  0  0  0
  -17.0651  -23.5923  -37.0685 H   0  0  0  0  0  0  0  0  0  0  0  0
  -11.9516  -24.7296  -36.9582 H   0  0  0  0  0  0  0  0  0  0  0  0
  -16.9669  -26.6936  -37.2525 H   0  0  0  0  0  0  0  0  0  0  0  0
  -13.5740  -25.5848  -34.6961 H   0  0  0  0  0  0  0  0  0  0  0  0
  -15.6437  -25.8044  -34.9463 H   0  0  0  0  0  0  0  0  0  0  0  0
  1 11  1  0  0  0  0
  1 12  1  0  0  0  0
  1 13  2  0  0  0  0
  2  3  1  0  0  0  0
  2  4  1  0  0  0  0
  3  5  1  0  0  0  0
  4  6  1  0  0  0  0
  5  9  1  0  0  0  0
  6  9  1  0  0  0  0
  7  8  1  0  0  0  0
  7 10  1  0  0  0  0
  8 10  1  0  0  0  0
  9 11  1  0  0  0  0
 10 12  1  0  0  0  0
  2 14  1  0  0  0  0
  2 15  1  0  0  0  0
  3 16  1  0  0  0  0
  3 17  1  0  0  0  0
  4 18  1  0  0  0  0
  4 19  1  0  0  0  0
  5 20  1  0  0  0  0
  5 21  1  0  0  0  0
  6 22  1  0  0  0  0
  6 23  1  0  0  0  0
  7 24  1  0  0  0  0
  7 25  1  0  0  0  0
  8 26  1  0  0  0  0
  8 27  1  0  0  0  0
  9 28  1  0  0  0  0
 10 29  1  0  0  0  0
 11 30  1  0  0  0  0
 12 31  1  0  0  0  0
M  END
> <Name>
IA_115.cdx

> <SourceTag>
IA_115

> <Gold.Version>
5.2

> <Gold.Id.Protein>
6HGV|6HGV_protein|mol2

> <Gold.Goldscore.Fitness>
45.0141

> <Gold.Goldscore.Internal.Vdw>
-0.0340

> <Gold.Goldscore.Internal.Torsion>
-1.1889

> <Gold.Goldscore.External.Vdw>
32.4633

> <Gold.Goldscore.Internal.HBond>
0.0000

> <Gold.Goldscore.External.HBond>
0.8678

> <Gold.Goldscore.Internal.Correction>
-0.7323

> <Gold.Goldscore.Hbonds>
donor molecule, donor type, donor heavy atom, donor atom, acceptor molecule, acceptor atom, score
      P1  H  1931  4507       L1    13  0.43

> <Gold.Goldscore.Internal.Vdw.Weighted>
-0.0340

> <Gold.Goldscore.Internal.Torsion.Weighted>
-1.1889

> <Gold.Goldscore.External.Vdw.Weighted>
44.6370

> <Gold.Goldscore.Internal.HBond.Weighted>
0.0000

> <Gold.Goldscore.External.HBond.Weighted>
0.8678

> <Gold.Goldscore.Internal.Correction.Weighted>
-0.7323

> <Gold.Protein.RotatedTorsions>
[ 3781 1176 1175 1172 ] final  178.34 input   60.00 | X-H torsion
[ 3847 1247 1246 1244 ] final   62.28 input   60.00 | X-H torsion
[ 4507 1931 1930 1928 ] final    5.78 input   60.00 | X-H torsion
[ 3677 1070 1069 1066 ] final  -75.41 input   60.00 | X-H torsion
[ 3525  925  924  922 ] final  -54.68 input   59.99 | X-H torsion
[ 4531 1957 1955 1953 ] final   79.62 input   60.00 | X-H torsion

> <Gold.Protein.ActiveResidues>
 PHE267  PRO268  MET310  ASP335  TRP336  MET339  TYR343  THR360  PRO361  ILE363 
 PRO371  SER374  ILE375  ASN378  PHE381  TYR383  GLN384  PHE387  LEU408  LEU417 
 MET419  LEU428  TYR466  MET469  ASN472  ASP496  VAL498  LEU499  MET503  HIS524 
 TRP525 

> <Gold.Protein.RotatedAtoms>
   -3.7332  -29.5642  -29.6268 H   0  0  0  0  0  0  0  0  0  0  0  0  # atno 3525 bound_to 925 
  -12.1014  -23.8447  -31.2883 H   0  0  0  0  0  0  0  0  0  0  0  0  # atno 3677 bound_to 1070
   -9.2783  -36.5336  -32.8375 H   0  0  0  0  0  0  0  0  0  0  0  0  # atno 3781 bound_to 1176
  -14.8029  -28.9158  -37.3352 H   0  0  0  0  0  0  0  0  0  0  0  0  # atno 3847 bound_to 1247
  -13.1952  -25.2758  -39.0257 H   0  0  0  0  0  0  0  0  0  0  0  0  # atno 4507 bound_to 1931
   -2.9128  -33.6983  -36.6991 H   0  0  0  0  0  0  0  0  0  0  0  0  # atno 4531 bound_to 1957
  -10.6256  -37.4452  -32.7955 LP  0  0  0  0  0  0  0  0  0  0  0  0  # atno 5205 bound_to 1176
  -10.2122  -36.6567  -34.1644 LP  0  0  0  0  0  0  0  0  0  0  0  0  # atno 5206 bound_to 1176
  -16.0709  -27.9021  -37.2225 LP  0  0  0  0  0  0  0  0  0  0  0  0  # atno 5215 bound_to 1247
  -14.6933  -27.4133  -37.9503 LP  0  0  0  0  0  0  0  0  0  0  0  0  # atno 5216 bound_to 1247
  -13.5388  -24.5701  -40.4511 LP  0  0  0  0  0  0  0  0  0  0  0  0  # atno 5217 bound_to 1931
  -12.4599  -23.8833  -39.4358 LP  0  0  0  0  0  0  0  0  0  0  0  0  # atno 5218 bound_to 1931
  -11.1365  -22.5593  -31.0336 LP  0  0  0  0  0  0  0  0  0  0  0  0  # atno 5224 bound_to 1070
  -12.6150  -22.6235  -30.3433 LP  0  0  0  0  0  0  0  0  0  0  0  0  # atno 5225 bound_to 1070

$$$$
IA_31|SeH_inactivess_minimized|sdf|117|dock5
  -GOLD-   4172121153D 1   1.00000     0.00000

 44 44  0  0  0  0  0  0  0  0  1 V2000
  -17.3235  -22.6931  -39.1531 C   0  0  0  0  0  0  0  0  0  0  0  0
  -16.1899  -22.8790  -38.3618 C   0  0  0  0  0  0  0  0  0  0  0  0
  -17.5332  -23.4995  -40.2718 C   0  0  0  0  0  0  0  0  0  0  0  0
  -15.4752  -24.6774  -39.8084 C   0  0  0  0  0  0  0  0  0  0  0  0
  -15.2657  -23.8711  -38.6895 C   0  0  0  0  0  0  0  0  0  0  0  0
  -16.6090  -24.4917  -40.5995 C   0  0  0  0  0  0  0  0  0  0  0  0
  -13.4788  -25.2612  -37.5683 C   0  0  0  0  0  0  0  0  0  0  0  0
   -9.3242  -27.7012  -35.0231 C   0  0  0  0  0  0  0  0  0  0  0  0
   -4.0463  -32.8868  -34.7261 C   0  0  0  0  0  0  0  0  0  0  0  0
   -4.3958  -31.4125  -34.8532 C   0  0  0  0  0  0  0  0  0  0  0  0
   -5.9080  -31.1919  -34.8338 C   0  0  0  0  0  0  0  0  0  0  0  0
   -6.2550  -29.7103  -34.9616 C   0  0  0  0  0  0  0  0  0  0  0  0
  -11.5103  -26.0677  -36.2500 C   0  0  0  0  0  0  0  0  0  0  0  0
  -10.6728  -25.6083  -35.0684 C   0  0  0  0  0  0  0  0  0  0  0  0
   -7.7598  -29.4817  -34.9431 C   0  0  0  0  0  0  0  0  0  0  0  0
  -14.1161  -24.0586  -37.8870 N   0  0  0  0  0  0  0  0  0  0  0  0
  -12.3683  -25.0249  -36.7452 N   0  0  0  0  0  0  0  0  0  0  0  0
   -9.4223  -26.3264  -34.9794 N   0  0  0  0  0  0  0  0  0  0  0  0
  -13.8114  -26.3853  -37.9358 O   0  0  0  0  0  0  0  0  0  0  0  0
  -10.2621  -28.4832  -35.1405 O   0  0  0  0  0  0  0  0  0  0  0  0
   -8.0116  -28.0836  -34.9155 O   0  0  0  0  0  0  0  0  0  0  0  0
  -16.8678  -25.4856  -41.9805 Cl  0  0  0  0  0  0  0  0  0  0  0  0
  -18.0434  -21.9206  -38.8978 H   0  0  0  0  0  0  0  0  0  0  0  0
  -16.0363  -22.2440  -37.4928 H   0  0  0  0  0  0  0  0  0  0  0  0
  -18.4209  -23.3425  -40.8789 H   0  0  0  0  0  0  0  0  0  0  0  0
  -14.7519  -25.4498  -40.0613 H   0  0  0  0  0  0  0  0  0  0  0  0
   -2.9615  -33.0335  -34.7188 H   0  0  0  0  0  0  0  0  0  0  0  0
   -4.4569  -33.3093  -33.8036 H   0  0  0  0  0  0  0  0  0  0  0  0
   -4.4591  -33.4483  -35.5701 H   0  0  0  0  0  0  0  0  0  0  0  0
   -3.9741  -31.0220  -35.7868 H   0  0  0  0  0  0  0  0  0  0  0  0
   -3.9285  -30.8601  -34.0297 H   0  0  0  0  0  0  0  0  0  0  0  0
   -6.3718  -31.7502  -35.6562 H   0  0  0  0  0  0  0  0  0  0  0  0
   -6.3249  -31.5876  -33.8994 H   0  0  0  0  0  0  0  0  0  0  0  0
   -5.8375  -29.3012  -35.8899 H   0  0  0  0  0  0  0  0  0  0  0  0
   -5.7911  -29.1398  -34.1475 H   0  0  0  0  0  0  0  0  0  0  0  0
  -12.1480  -26.9162  -35.9818 H   0  0  0  0  0  0  0  0  0  0  0  0
  -10.8602  -26.3683  -37.0773 H   0  0  0  0  0  0  0  0  0  0  0  0
  -10.4271  -24.5465  -35.1683 H   0  0  0  0  0  0  0  0  0  0  0  0
  -11.2040  -25.7540  -34.1222 H   0  0  0  0  0  0  0  0  0  0  0  0
   -8.2132  -29.9346  -34.0556 H   0  0  0  0  0  0  0  0  0  0  0  0
   -8.2297  -29.9026  -35.8376 H   0  0  0  0  0  0  0  0  0  0  0  0
  -13.7031  -23.2163  -37.4942 H   0  0  0  0  0  0  0  0  0  0  0  0
  -12.1581  -24.0634  -36.4840 H   0  0  0  0  0  0  0  0  0  0  0  0
   -8.5671  -25.7882  -34.8792 H   0  0  0  0  0  0  0  0  0  0  0  0
  1  2  2  0  0  0  0
  1  3  1  0  0  0  0
  2  5  1  0  0  0  0
  3  6  2  0  0  0  0
  4  5  2  0  0  0  0
  4  6  1  0  0  0  0
  5 16  1  0  0  0  0
  6 22  1  0  0  0  0
  7 16  1  0  0  0  0
  7 17  1  0  0  0  0
  7 19  2  0  0  0  0
  8 18  1  0  0  0  0
  8 20  2  0  0  0  0
  8 21  1  0  0  0  0
  9 10  1  0  0  0  0
 10 11  1  0  0  0  0
 11 12  1  0  0  0  0
 12 15  1  0  0  0  0
 13 14  1  0  0  0  0
 13 17  1  0  0  0  0
 14 18  1  0  0  0  0
 15 21  1  0  0  0  0
  1 23  1  0  0  0  0
  2 24  1  0  0  0  0
  3 25  1  0  0  0  0
  4 26  1  0  0  0  0
  9 27  1  0  0  0  0
  9 28  1  0  0  0  0
  9 29  1  0  0  0  0
 10 30  1  0  0  0  0
 10 31  1  0  0  0  0
 11 32  1  0  0  0  0
 11 33  1  0  0  0  0
 12 34  1  0  0  0  0
 12 35  1  0  0  0  0
 13 36  1  0  0  0  0
 13 37  1  0  0  0  0
 14 38  1  0  0  0  0
 14 39  1  0  0  0  0
 15 40  1  0  0  0  0
 15 41  1  0  0  0  0
 16 42  1  0  0  0  0
 17 43  1  0  0  0  0
 18 44  1  0  0  0  0
M  END
> <Name>
IA_31

> <SourceTag>
IA_31

> <Gold.Version>
5.2

> <Gold.Id.Protein>
6HGV|6HGV_protein|mol2

> <Gold.Goldscore.Fitness>
71.9390

> <Gold.Goldscore.Internal.Vdw>
-3.6433

> <Gold.Goldscore.Internal.Torsion>
-4.7806

> <Gold.Goldscore.External.Vdw>
48.6398

> <Gold.Goldscore.Internal.HBond>
0.0000

> <Gold.Goldscore.External.HBond>
7.5766

> <Gold.Goldscore.Internal.Correction>
-5.9066

> <Gold.Goldscore.Hbonds>
donor molecule, donor type, donor heavy atom, donor atom, acceptor molecule, acceptor atom, score
      P1  H  1256  3854       L1    20  0.03
      P1  H  1247  3847       L1    19  0.57
      L1  H    16    42       P1   854  0.80
      L1  H    17    43       P1   854  0.27

> <Gold.Goldscore.Internal.Vdw.Weighted>
-3.6433

> <Gold.Goldscore.Internal.Torsion.Weighted>
-4.7806

> <Gold.Goldscore.External.Vdw.Weighted>
66.8797

> <Gold.Goldscore.Internal.HBond.Weighted>
0.0000

> <Gold.Goldscore.External.HBond.Weighted>
7.5766

> <Gold.Goldscore.Internal.Correction.Weighted>
-5.9066

> <Gold.Protein.RotatedTorsions>
[ 3781 1176 1175 1172 ] final   32.20 input   60.00 | X-H torsion
[ 3847 1247 1246 1244 ] final -175.94 input   60.00 | X-H torsion
[ 4507 1931 1930 1928 ] final  170.48 input   60.00 | X-H torsion
[ 3677 1070 1069 1066 ] final -108.88 input   60.00 | X-H torsion
[ 3525  925  924  922 ] final    1.58 input   59.99 | X-H torsion
[ 4531 1957 1955 1953 ] final  -79.49 input   60.00 | X-H torsion

> <Gold.Protein.ActiveResidues>
 PHE267  PRO268  MET310  ASP335  TRP336  MET339  TYR343  THR360  PRO361  ILE363 
 PRO371  SER374  ILE375  ASN378  PHE381  TYR383  GLN384  PHE387  LEU408  LEU417 
 MET419  LEU428  TYR466  MET469  ASN472  ASP496  VAL498  LEU499  MET503  HIS524 
 TRP525 

> <Gold.Protein.RotatedAtoms>
   -3.5826  -29.5503  -30.4965 H   0  0  0  0  0  0  0  0  0  0  0  0  # atno 3525 bound_to 925 
  -11.6090  -23.6863  -31.4402 H   0  0  0  0  0  0  0  0  0  0  0  0  # atno 3677 bound_to 1070
  -10.7974  -37.4176  -33.1833 H   0  0  0  0  0  0  0  0  0  0  0  0  # atno 3781 bound_to 1176
  -14.7204  -27.4009  -37.9471 H   0  0  0  0  0  0  0  0  0  0  0  0  # atno 3847 bound_to 1247
  -12.7737  -23.8027  -40.0726 H   0  0  0  0  0  0  0  0  0  0  0  0  # atno 4507 bound_to 1931
   -1.6913  -32.3360  -36.9078 H   0  0  0  0  0  0  0  0  0  0  0  0  # atno 4531 bound_to 1957
   -9.8505  -36.4462  -34.0821 LP  0  0  0  0  0  0  0  0  0  0  0  0  # atno 5205 bound_to 1176
   -9.4575  -36.7655  -32.5296 LP  0  0  0  0  0  0  0  0  0  0  0  0  # atno 5206 bound_to 1176
  -14.7749  -28.9118  -37.3450 LP  0  0  0  0  0  0  0  0  0  0  0  0  # atno 5215 bound_to 1247
  -16.0724  -27.9292  -37.2116 LP  0  0  0  0  0  0  0  0  0  0  0  0  # atno 5216 bound_to 1247
  -12.7215  -24.7976  -38.7860 LP  0  0  0  0  0  0  0  0  0  0  0  0  # atno 5217 bound_to 1931
  -13.7016  -25.1393  -40.0466 LP  0  0  0  0  0  0  0  0  0  0  0  0  # atno 5218 bound_to 1931
  -11.4346  -22.2439  -30.7074 LP  0  0  0  0  0  0  0  0  0  0  0  0  # atno 5224 bound_to 1070
  -12.8129  -23.0986  -30.5165 LP  0  0  0  0  0  0  0  0  0  0  0  0  # atno 5225 bound_to 1070

$$$$
IA_85.cdx|SeH_inactivess_minimized|sdf|163|dock6
  -GOLD-   4172122263D 1   1.00000     0.00000

 38 37  0  0  0  0  0  0  0  0  1 V2000
  -11.1084  -26.7836  -32.6461 C   0  0  0  0  0  0  0  0  0  0  0  0
  -20.5524  -23.9752  -38.6142 C   0  0  0  0  0  0  0  0  0  0  0  0
  -19.6495  -24.7366  -37.6567 C   0  0  0  0  0  0  0  0  0  0  0  0
  -18.1731  -24.5426  -38.0050 C   0  0  0  0  0  0  0  0  0  0  0  0
  -17.2689  -25.2707  -37.0084 C   0  0  0  0  0  0  0  0  0  0  0  0
  -15.7754  -25.1107  -37.3091 C   0  0  0  0  0  0  0  0  0  0  0  0
  -14.8187  -25.6340  -36.2323 C   0  0  0  0  0  0  0  0  0  0  0  0
  -13.3443  -25.3885  -36.5610 C   0  0  0  0  0  0  0  0  0  0  0  0
  -12.4006  -25.7378  -35.4051 C   0  0  0  0  0  0  0  0  0  0  0  0
  -10.9220  -25.5221  -35.7445 C   0  0  0  0  0  0  0  0  0  0  0  0
  -10.0366  -25.5069  -34.5015 C   0  0  0  0  0  0  0  0  0  0  0  0
  -11.0660  -28.0221  -32.0310 N   0  0  0  0  0  0  0  0  0  0  0  0
  -10.1985  -26.6857  -33.6954 N   0  0  0  0  0  0  0  0  0  0  0  0
  -11.8712  -25.8877  -32.2885 O   0  0  0  0  0  0  0  0  0  0  0  0
  -20.4009  -22.8950  -38.5214 H   0  0  0  0  0  0  0  0  0  0  0  0
  -20.3543  -24.2621  -39.6517 H   0  0  0  0  0  0  0  0  0  0  0  0
  -21.6031  -24.1911  -38.3969 H   0  0  0  0  0  0  0  0  0  0  0  0
  -19.8394  -24.3922  -36.6334 H   0  0  0  0  0  0  0  0  0  0  0  0
  -19.9037  -25.8023  -37.6932 H   0  0  0  0  0  0  0  0  0  0  0  0
  -17.9334  -23.4723  -38.0057 H   0  0  0  0  0  0  0  0  0  0  0  0
  -17.9931  -24.9171  -39.0191 H   0  0  0  0  0  0  0  0  0  0  0  0
  -17.5335  -26.3339  -36.9742 H   0  0  0  0  0  0  0  0  0  0  0  0
  -17.4549  -24.8761  -36.0014 H   0  0  0  0  0  0  0  0  0  0  0  0
  -15.5467  -25.6221  -38.2525 H   0  0  0  0  0  0  0  0  0  0  0  0
  -15.5691  -24.0467  -37.4794 H   0  0  0  0  0  0  0  0  0  0  0  0
  -14.9881  -26.7126  -36.1240 H   0  0  0  0  0  0  0  0  0  0  0  0
  -15.0733  -25.1839  -35.2671 H   0  0  0  0  0  0  0  0  0  0  0  0
  -13.0634  -25.9989  -37.4281 H   0  0  0  0  0  0  0  0  0  0  0  0
  -13.1891  -24.3417  -36.8454 H   0  0  0  0  0  0  0  0  0  0  0  0
  -12.6743  -25.1491  -34.5215 H   0  0  0  0  0  0  0  0  0  0  0  0
  -12.5576  -26.7916  -35.1436 H   0  0  0  0  0  0  0  0  0  0  0  0
  -10.7951  -24.5801  -36.2898 H   0  0  0  0  0  0  0  0  0  0  0  0
  -10.5823  -26.3287  -36.4052 H   0  0  0  0  0  0  0  0  0  0  0  0
  -10.2919  -24.6506  -33.8695 H   0  0  0  0  0  0  0  0  0  0  0  0
   -8.9789  -25.4289  -34.7718 H   0  0  0  0  0  0  0  0  0  0  0  0
  -11.6708  -28.2498  -31.2491 H   0  0  0  0  0  0  0  0  0  0  0  0
  -10.4262  -28.7434  -32.3466 H   0  0  0  0  0  0  0  0  0  0  0  0
   -9.6149  -27.4944  -33.9031 H   0  0  0  0  0  0  0  0  0  0  0  0
  1 12  1  0  0  0  0
  1 13  1  0  0  0  0
  1 14  2  0  0  0  0
  2  3  1  0  0  0  0
  3  4  1  0  0  0  0
  4  5  1  0  0  0  0
  5  6  1  0  0  0  0
  6  7  1  0  0  0  0
  7  8  1  0  0  0  0
  8  9  1  0  0  0  0
  9 10  1  0  0  0  0
 10 11  1  0  0  0  0
 11 13  1  0  0  0  0
  2 15  1  0  0  0  0
  2 16  1  0  0  0  0
  2 17  1  0  0  0  0
  3 18  1  0  0  0  0
  3 19  1  0  0  0  0
  4 20  1  0  0  0  0
  4 21  1  0  0  0  0
  5 22  1  0  0  0  0
  5 23  1  0  0  0  0
  6 24  1  0  0  0  0
  6 25  1  0  0  0  0
  7 26  1  0  0  0  0
  7 27  1  0  0  0  0
  8 28  1  0  0  0  0
  8 29  1  0  0  0  0
  9 30  1  0  0  0  0
  9 31  1  0  0  0  0
 10 32  1  0  0  0  0
 10 33  1  0  0  0  0
 11 34  1  0  0  0  0
 11 35  1  0  0  0  0
 12 36  1  0  0  0  0
 12 37  1  0  0  0  0
 13 38  1  0  0  0  0
M  END
> <Name>
IA_85.cdx

> <SourceTag>
IA_85

> <Gold.Version>
5.2

> <Gold.Id.Protein>
6HGV|6HGV_protein|mol2

> <Gold.Goldscore.Fitness>
49.2555

> <Gold.Goldscore.Internal.Vdw>
-2.7554

> <Gold.Goldscore.Internal.Torsion>
-1.6431

> <Gold.Goldscore.External.Vdw>
36.5893

> <Gold.Goldscore.Internal.HBond>
0.0000

> <Gold.Goldscore.External.HBond>
0.3201

> <Gold.Goldscore.Internal.Correction>
-3.0236

> <Gold.Goldscore.Hbonds>
donor molecule, donor type, donor heavy atom, donor atom, acceptor molecule, acceptor atom, score
      P1  H  1070  3677       L1    14  0.16

> <Gold.Goldscore.Internal.Vdw.Weighted>
-2.7554

> <Gold.Goldscore.Internal.Torsion.Weighted>
-1.6431

> <Gold.Goldscore.External.Vdw.Weighted>
50.3103

> <Gold.Goldscore.Internal.HBond.Weighted>
0.0000

> <Gold.Goldscore.External.HBond.Weighted>
0.3201

> <Gold.Goldscore.Internal.Correction.Weighted>
-3.0236

> <Gold.Protein.RotatedTorsions>
[ 3781 1176 1175 1172 ] final  -53.84 input   60.00 | X-H torsion
[ 3847 1247 1246 1244 ] final  127.90 input   60.00 | X-H torsion
[ 4507 1931 1930 1928 ] final  -41.17 input   60.00 | X-H torsion
[ 3677 1070 1069 1066 ] final  -93.47 input   60.00 | X-H torsion
[ 3525  925  924  922 ] final   13.16 input   59.99 | X-H torsion
[ 4531 1957 1955 1953 ] final  -53.68 input   60.00 | X-H torsion

> <Gold.Protein.ActiveResidues>
 PHE267  PRO268  MET310  ASP335  TRP336  MET339  TYR343  THR360  PRO361  ILE363 
 PRO371  SER374  ILE375  ASN378  PHE381  TYR383  GLN384  PHE387  LEU408  LEU417 
 MET419  LEU428  TYR466  MET469  ASN472  ASP496  VAL498  LEU499  MET503  HIS524 
 TRP525 

> <Gold.Protein.RotatedAtoms>
   -3.4608  -29.5907  -30.6352 H   0  0  0  0  0  0  0  0  0  0  0  0  # atno 3525 bound_to 925 
  -11.8311  -23.7923  -31.3913 H   0  0  0  0  0  0  0  0  0  0  0  0  # atno 3677 bound_to 1070
  -10.3135  -36.7336  -34.1475 H   0  0  0  0  0  0  0  0  0  0  0  0  # atno 3781 bound_to 1176
  -14.3101  -28.1695  -37.8141 H   0  0  0  0  0  0  0  0  0  0  0  0  # atno 3847 bound_to 1247
  -13.6055  -25.3423  -39.6450 H   0  0  0  0  0  0  0  0  0  0  0  0  # atno 4507 bound_to 1931
   -2.0796  -32.2003  -36.8316 H   0  0  0  0  0  0  0  0  0  0  0  0  # atno 4531 bound_to 1957
   -9.2488  -36.4706  -32.9453 LP  0  0  0  0  0  0  0  0  0  0  0  0  # atno 5205 bound_to 1176
  -10.5464  -37.4299  -32.6953 LP  0  0  0  0  0  0  0  0  0  0  0  0  # atno 5206 bound_to 1176
  -15.6082  -28.7987  -37.0612 LP  0  0  0  0  0  0  0  0  0  0  0  0  # atno 5215 bound_to 1247
  -15.6524  -27.2683  -37.6293 LP  0  0  0  0  0  0  0  0  0  0  0  0  # atno 5216 bound_to 1247
  -13.0771  -23.9834  -40.3676 LP  0  0  0  0  0  0  0  0  0  0  0  0  # atno 5217 bound_to 1931
  -12.5083  -24.4030  -38.8955 LP  0  0  0  0  0  0  0  0  0  0  0  0  # atno 5218 bound_to 1931
  -11.2683  -22.3621  -30.8565 LP  0  0  0  0  0  0  0  0  0  0  0  0  # atno 5224 bound_to 1070
  -12.7554  -22.8736  -30.4167 LP  0  0  0  0  0  0  0  0  0  0  0  0  # atno 5225 bound_to 1070

$$$$
IA_106.cdx|SeH_inactivess_minimized|sdf|8|dock4
  -GOLD-   4172118413D 1   1.00000     0.00000

 69 68  0  0  0  0  0  0  0  0  1 V2000
  -13.3031  -24.9571  -36.8316 C   0  0  0  0  0  0  0  0  0  0  0  0
  -12.0678  -25.2708  -36.4141 C   0  0  0  0  0  0  0  0  0  0  0  0
   -6.0165  -34.5090  -34.7434 C   0  0  0  0  0  0  0  0  0  0  0  0
  -22.0607  -23.1283  -38.8945 C   0  0  0  0  0  0  0  0  0  0  0  0
   -6.0095  -37.8507  -31.7052 C   0  0  0  0  0  0  0  0  0  0  0  0
  -14.5558  -25.4253  -36.1483 C   0  0  0  0  0  0  0  0  0  0  0  0
  -11.7839  -26.1273  -35.2146 C   0  0  0  0  0  0  0  0  0  0  0  0
  -21.1501  -24.1060  -38.1683 C   0  0  0  0  0  0  0  0  0  0  0  0
   -4.9473  -37.4336  -32.7124 C   0  0  0  0  0  0  0  0  0  0  0  0
  -15.8274  -24.8553  -36.7866 C   0  0  0  0  0  0  0  0  0  0  0  0
  -10.7887  -27.2541  -35.5116 C   0  0  0  0  0  0  0  0  0  0  0  0
  -19.7605  -24.1531  -38.8047 C   0  0  0  0  0  0  0  0  0  0  0  0
  -17.1134  -25.3926  -36.1497 C   0  0  0  0  0  0  0  0  0  0  0  0
  -10.2700  -28.0144  -34.2845 C   0  0  0  0  0  0  0  0  0  0  0  0
  -18.8025  -25.1168  -38.0976 C   0  0  0  0  0  0  0  0  0  0  0  0
  -18.3790  -24.7118  -36.6811 C   0  0  0  0  0  0  0  0  0  0  0  0
   -9.0529  -28.9130  -34.5227 C   0  0  0  0  0  0  0  0  0  0  0  0
   -9.3333  -30.0792  -35.4727 C   0  0  0  0  0  0  0  0  0  0  0  0
   -8.2338  -31.1403  -35.3853 C   0  0  0  0  0  0  0  0  0  0  0  0
   -8.6445  -32.4296  -36.1022 C   0  0  0  0  0  0  0  0  0  0  0  0
   -4.9565  -35.9356  -32.9918 C   0  0  0  0  0  0  0  0  0  0  0  0
   -7.4526  -33.3329  -36.4042 C   0  0  0  0  0  0  0  0  0  0  0  0
   -6.0821  -35.5342  -33.8036 N   0  0  0  0  0  0  0  0  0  0  0  0
   -7.2418  -34.3266  -35.3875 N   0  0  0  0  0  0  0  0  0  0  0  0
   -5.0080  -33.8452  -34.9802 O   0  0  0  0  0  0  0  0  0  0  0  0
  -13.4228  -24.3286  -37.7101 H   0  0  0  0  0  0  0  0  0  0  0  0
  -11.2068  -24.8919  -36.9593 H   0  0  0  0  0  0  0  0  0  0  0  0
  -22.1526  -23.3957  -39.9512 H   0  0  0  0  0  0  0  0  0  0  0  0
  -21.6527  -22.1145  -38.8361 H   0  0  0  0  0  0  0  0  0  0  0  0
  -23.0620  -23.1185  -38.4524 H   0  0  0  0  0  0  0  0  0  0  0  0
   -5.9307  -38.9171  -31.4710 H   0  0  0  0  0  0  0  0  0  0  0  0
   -5.8859  -37.2896  -30.7734 H   0  0  0  0  0  0  0  0  0  0  0  0
   -7.0174  -37.6543  -32.0838 H   0  0  0  0  0  0  0  0  0  0  0  0
  -14.6145  -26.5205  -36.1798 H   0  0  0  0  0  0  0  0  0  0  0  0
  -14.5086  -25.1484  -35.0887 H   0  0  0  0  0  0  0  0  0  0  0  0
  -11.4289  -25.5241  -34.3714 H   0  0  0  0  0  0  0  0  0  0  0  0
  -12.7306  -26.5767  -34.8904 H   0  0  0  0  0  0  0  0  0  0  0  0
  -21.0805  -23.8027  -37.1184 H   0  0  0  0  0  0  0  0  0  0  0  0
  -21.6026  -25.1040  -38.1906 H   0  0  0  0  0  0  0  0  0  0  0  0
   -5.1252  -37.9701  -33.6516 H   0  0  0  0  0  0  0  0  0  0  0  0
   -3.9614  -37.7419  -32.3445 H   0  0  0  0  0  0  0  0  0  0  0  0
  -15.8256  -25.1176  -37.8520 H   0  0  0  0  0  0  0  0  0  0  0  0
  -15.8009  -23.7608  -36.7291 H   0  0  0  0  0  0  0  0  0  0  0  0
   -9.9242  -26.8364  -36.0442 H   0  0  0  0  0  0  0  0  0  0  0  0
  -11.2549  -27.9599  -36.2092 H   0  0  0  0  0  0  0  0  0  0  0  0
  -19.8574  -24.4757  -39.8491 H   0  0  0  0  0  0  0  0  0  0  0  0
  -19.3284  -23.1466  -38.8349 H   0  0  0  0  0  0  0  0  0  0  0  0
  -17.0734  -25.2976  -35.0598 H   0  0  0  0  0  0  0  0  0  0  0  0
  -17.1910  -26.4664  -36.3616 H   0  0  0  0  0  0  0  0  0  0  0  0
  -11.0780  -28.6274  -33.8666 H   0  0  0  0  0  0  0  0  0  0  0  0
  -10.0182  -27.2800  -33.5088 H   0  0  0  0  0  0  0  0  0  0  0  0
  -17.9097  -25.2416  -38.7216 H   0  0  0  0  0  0  0  0  0  0  0  0
  -19.2714  -26.1077  -38.0456 H   0  0  0  0  0  0  0  0  0  0  0  0
  -19.2113  -24.9247  -35.9982 H   0  0  0  0  0  0  0  0  0  0  0  0
  -18.2326  -23.6257  -36.6438 H   0  0  0  0  0  0  0  0  0  0  0  0
   -8.6719  -29.2943  -33.5687 H   0  0  0  0  0  0  0  0  0  0  0  0
   -8.2535  -28.2915  -34.9458 H   0  0  0  0  0  0  0  0  0  0  0  0
  -10.2961  -30.5406  -35.2264 H   0  0  0  0  0  0  0  0  0  0  0  0
   -9.4030  -29.7073  -36.5019 H   0  0  0  0  0  0  0  0  0  0  0  0
   -8.0189  -31.3591  -34.3322 H   0  0  0  0  0  0  0  0  0  0  0  0
   -7.3125  -30.7452  -35.8295 H   0  0  0  0  0  0  0  0  0  0  0  0
   -9.1678  -32.1814  -37.0337 H   0  0  0  0  0  0  0  0  0  0  0  0
   -9.3513  -32.9827  -35.4719 H   0  0  0  0  0  0  0  0  0  0  0  0
   -5.0260  -35.3797  -32.0514 H   0  0  0  0  0  0  0  0  0  0  0  0
   -4.0430  -35.6217  -33.5065 H   0  0  0  0  0  0  0  0  0  0  0  0
   -6.5358  -32.7380  -36.4630 H   0  0  0  0  0  0  0  0  0  0  0  0
   -7.5850  -33.8532  -37.3580 H   0  0  0  0  0  0  0  0  0  0  0  0
   -6.9636  -36.0233  -33.6831 H   0  0  0  0  0  0  0  0  0  0  0  0
   -8.0067  -34.9575  -35.1549 H   0  0  0  0  0  0  0  0  0  0  0  0
  1  2  2  0  0  0  0
  1  6  1  0  0  0  0
  2  7  1  0  0  0  0
  3 23  1  0  0  0  0
  3 24  1  0  0  0  0
  3 25  2  0  0  0  0
  4  8  1  0  0  0  0
  5  9  1  0  0  0  0
  6 10  1  0  0  0  0
  7 11  1  0  0  0  0
  8 12  1  0  0  0  0
  9 21  1  0  0  0  0
 10 13  1  0  0  0  0
 11 14  1  0  0  0  0
 12 15  1  0  0  0  0
 13 16  1  0  0  0  0
 14 17  1  0  0  0  0
 15 16  1  0  0  0  0
 17 18  1  0  0  0  0
 18 19  1  0  0  0  0
 19 20  1  0  0  0  0
 20 22  1  0  0  0  0
 21 23  1  0  0  0  0
 22 24  1  0  0  0  0
  1 26  1  0  0  0  0
  2 27  1  0  0  0  0
  4 28  1  0  0  0  0
  4 29  1  0  0  0  0
  4 30  1  0  0  0  0
  5 31  1  0  0  0  0
  5 32  1  0  0  0  0
  5 33  1  0  0  0  0
  6 34  1  0  0  0  0
  6 35  1  0  0  0  0
  7 36  1  0  0  0  0
  7 37  1  0  0  0  0
  8 38  1  0  0  0  0
  8 39  1  0  0  0  0
  9 40  1  0  0  0  0
  9 41  1  0  0  0  0
 10 42  1  0  0  0  0
 10 43  1  0  0  0  0
 11 44  1  0  0  0  0
 11 45  1  0  0  0  0
 12 46  1  0  0  0  0
 12 47  1  0  0  0  0
 13 48  1  0  0  0  0
 13 49  1  0  0  0  0
 14 50  1  0  0  0  0
 14 51  1  0  0  0  0
 15 52  1  0  0  0  0
 15 53  1  0  0  0  0
 16 54  1  0  0  0  0
 16 55  1  0  0  0  0
 17 56  1  0  0  0  0
 17 57  1  0  0  0  0
 18 58  1  0  0  0  0
 18 59  1  0  0  0  0
 19 60  1  0  0  0  0
 19 61  1  0  0  0  0
 20 62  1  0  0  0  0
 20 63  1  0  0  0  0
 21 64  1  0  0  0  0
 21 65  1  0  0  0  0
 22 66  1  0  0  0  0
 22 67  1  0  0  0  0
 23 68  1  0  0  0  0
 24 69  1  0  0  0  0
M  END
> <Name>
IA_106.cdx

> <SourceTag>
IA_106

> <Gold.Version>
5.2

> <Gold.Id.Protein>
6HGV|6HGV_protein|mol2

> <Gold.Goldscore.Fitness>
77.2159

> <Gold.Goldscore.Internal.Vdw>
-11.6105

> <Gold.Goldscore.Internal.Torsion>
-8.6053

> <Gold.Goldscore.External.Vdw>
60.6250

> <Gold.Goldscore.Internal.HBond>
0.0000

> <Gold.Goldscore.External.HBond>
1.5923

> <Gold.Goldscore.Internal.Correction>
-12.4799

> <Gold.Goldscore.Hbonds>
donor molecule, donor type, donor heavy atom, donor atom, acceptor molecule, acceptor atom, score
      P1  H  1957  4531       L1    25  0.55
      L1  H    23    68       P1  1176  0.22
      L1  H    24    69       P1  1176  0.02

> <Gold.Goldscore.Internal.Vdw.Weighted>
-11.6105

> <Gold.Goldscore.Internal.Torsion.Weighted>
-8.6053

> <Gold.Goldscore.External.Vdw.Weighted>
83.3594

> <Gold.Goldscore.Internal.HBond.Weighted>
0.0000

> <Gold.Goldscore.External.HBond.Weighted>
1.5923

> <Gold.Goldscore.Internal.Correction.Weighted>
-12.4799

> <Gold.Protein.RotatedTorsions>
[ 3781 1176 1175 1172 ] final  174.65 input   60.00 | X-H torsion
[ 3847 1247 1246 1244 ] final   99.56 input   60.00 | X-H torsion
[ 4507 1931 1930 1928 ] final  -76.19 input   60.00 | X-H torsion
[ 3677 1070 1069 1066 ] final -102.44 input   60.00 | X-H torsion
[ 3525  925  924  922 ] final  -76.70 input   59.99 | X-H torsion
[ 4531 1957 1955 1953 ] final   60.01 input   60.00 | X-H torsion

> <Gold.Protein.ActiveResidues>
 PHE267  PRO268  MET310  ASP335  TRP336  MET339  TYR343  THR360  PRO361  ILE363 
 PRO371  SER374  ILE375  ASN378  PHE381  TYR383  GLN384  PHE387  LEU408  LEU417 
 MET419  LEU428  TYR466  MET469  ASN472  ASP496  VAL498  LEU499  MET503  HIS524 
 TRP525 

> <Gold.Protein.RotatedAtoms>
   -3.5770  -29.6604  -29.3197 H   0  0  0  0  0  0  0  0  0  0  0  0  # atno 3525 bound_to 925 
  -11.6996  -23.7370  -31.4245 H   0  0  0  0  0  0  0  0  0  0  0  0  # atno 3677 bound_to 1070
   -9.2951  -36.5635  -32.7878 H   0  0  0  0  0  0  0  0  0  0  0  0  # atno 3781 bound_to 1176
  -14.4033  -28.5752  -37.6223 H   0  0  0  0  0  0  0  0  0  0  0  0  # atno 3847 bound_to 1247
  -13.6946  -25.0660  -40.1279 H   0  0  0  0  0  0  0  0  0  0  0  0  # atno 4507 bound_to 1931
   -3.0565  -33.4153  -36.6669 H   0  0  0  0  0  0  0  0  0  0  0  0  # atno 4531 bound_to 1957
  -10.6593  -37.4488  -32.8460 LP  0  0  0  0  0  0  0  0  0  0  0  0  # atno 5205 bound_to 1176
  -10.1615  -36.6230  -34.1639 LP  0  0  0  0  0  0  0  0  0  0  0  0  # atno 5206 bound_to 1176
  -15.9276  -28.4655  -37.0633 LP  0  0  0  0  0  0  0  0  0  0  0  0  # atno 5215 bound_to 1247
  -15.2390  -27.1930  -37.8204 LP  0  0  0  0  0  0  0  0  0  0  0  0  # atno 5216 bound_to 1247
  -12.7096  -23.7784  -39.9871 LP  0  0  0  0  0  0  0  0  0  0  0  0  # atno 5217 bound_to 1931
  -12.7861  -24.8863  -38.7898 LP  0  0  0  0  0  0  0  0  0  0  0  0  # atno 5218 bound_to 1931
  -11.3599  -22.2869  -30.7687 LP  0  0  0  0  0  0  0  0  0  0  0  0  # atno 5224 bound_to 1070
  -12.7963  -23.0045  -30.4711 LP  0  0  0  0  0  0  0  0  0  0  0  0  # atno 5225 bound_to 1070

$$$$
IA_33.cdx|SeH_inactivess_minimized|sdf|119|dock10
  -GOLD-   4172121193D 1   1.00000     0.00000

 35 35  0  0  0  0  0  0  0  0  1 V2000
   -9.9910  -25.2495  -34.3885 C   0  0  0  0  0  0  0  0  0  0  0  0
  -10.9729  -24.9763  -35.3408 C   0  0  0  0  0  0  0  0  0  0  0  0
   -9.2467  -26.4262  -34.4719 C   0  0  0  0  0  0  0  0  0  0  0  0
  -10.4665  -27.0568  -36.4598 C   0  0  0  0  0  0  0  0  0  0  0  0
  -11.2108  -25.8800  -36.3763 C   0  0  0  0  0  0  0  0  0  0  0  0
   -9.4845  -27.3299  -35.5075 C   0  0  0  0  0  0  0  0  0  0  0  0
  -17.9234  -23.7162  -39.6340 C   0  0  0  0  0  0  0  0  0  0  0  0
  -13.4513  -25.3629  -36.7827 C   0  0  0  0  0  0  0  0  0  0  0  0
  -20.2313  -24.6014  -36.9319 C   0  0  0  0  0  0  0  0  0  0  0  0
  -16.5226  -23.1655  -39.4818 C   0  0  0  0  0  0  0  0  0  0  0  0
  -16.0051  -23.2238  -38.0424 C   0  0  0  0  0  0  0  0  0  0  0  0
  -15.7049  -24.6377  -37.5503 C   0  0  0  0  0  0  0  0  0  0  0  0
  -19.8121  -24.3715  -38.3683 C   0  0  0  0  0  0  0  0  0  0  0  0
  -14.2842  -24.9757  -37.7867 N   0  0  0  0  0  0  0  0  0  0  0  0
  -18.5033  -23.8828  -40.6982 O   0  0  0  0  0  0  0  0  0  0  0  0
  -13.7375  -25.4855  -35.5954 O   0  0  0  0  0  0  0  0  0  0  0  0
  -12.1942  -25.6056  -37.3316 O   0  0  0  0  0  0  0  0  0  0  0  0
  -18.4404  -23.9638  -38.3940 O   0  0  0  0  0  0  0  0  0  0  0  0
   -8.5655  -28.7811  -35.6094 Cl  0  0  0  0  0  0  0  0  0  0  0  0
   -9.8057  -24.5453  -33.5826 H   0  0  0  0  0  0  0  0  0  0  0  0
  -11.5497  -24.0581  -35.2706 H   0  0  0  0  0  0  0  0  0  0  0  0
   -8.4851  -26.6263  -33.7225 H   0  0  0  0  0  0  0  0  0  0  0  0
  -10.6584  -27.7565  -37.2699 H   0  0  0  0  0  0  0  0  0  0  0  0
  -20.2284  -23.6635  -36.3696 H   0  0  0  0  0  0  0  0  0  0  0  0
  -21.2349  -25.0371  -36.8877 H   0  0  0  0  0  0  0  0  0  0  0  0
  -19.5551  -25.3094  -36.4413 H   0  0  0  0  0  0  0  0  0  0  0  0
  -15.8684  -23.7697  -40.1207 H   0  0  0  0  0  0  0  0  0  0  0  0
  -16.5012  -22.1336  -39.8486 H   0  0  0  0  0  0  0  0  0  0  0  0
  -15.0941  -22.6194  -37.9547 H   0  0  0  0  0  0  0  0  0  0  0  0
  -16.7542  -22.7648  -37.3851 H   0  0  0  0  0  0  0  0  0  0  0  0
  -15.9227  -24.7488  -36.4840 H   0  0  0  0  0  0  0  0  0  0  0  0
  -16.3206  -25.3600  -38.0965 H   0  0  0  0  0  0  0  0  0  0  0  0
  -20.4218  -23.5862  -38.8250 H   0  0  0  0  0  0  0  0  0  0  0  0
  -19.9174  -25.2915  -38.9510 H   0  0  0  0  0  0  0  0  0  0  0  0
  -13.9234  -24.9175  -38.7167 H   0  0  0  0  0  0  0  0  0  0  0  0
  1  2  1  0  0  0  0
  1  3  2  0  0  0  0
  2  5  2  0  0  0  0
  3  6  1  0  0  0  0
  4  5  1  0  0  0  0
  4  6  2  0  0  0  0
  5 17  1  0  0  0  0
  6 19  1  0  0  0  0
  7 10  1  0  0  0  0
  7 15  2  0  0  0  0
  7 18  1  0  0  0  0
  8 14  1  0  0  0  0
  8 16  2  0  0  0  0
  8 17  1  0  0  0  0
  9 13  1  0  0  0  0
 10 11  1  0  0  0  0
 11 12  1  0  0  0  0
 12 14  1  0  0  0  0
 13 18  1  0  0  0  0
  1 20  1  0  0  0  0
  2 21  1  0  0  0  0
  3 22  1  0  0  0  0
  4 23  1  0  0  0  0
  9 24  1  0  0  0  0
  9 25  1  0  0  0  0
  9 26  1  0  0  0  0
 10 27  1  0  0  0  0
 10 28  1  0  0  0  0
 11 29  1  0  0  0  0
 11 30  1  0  0  0  0
 12 31  1  0  0  0  0
 12 32  1  0  0  0  0
 13 33  1  0  0  0  0
 13 34  1  0  0  0  0
 14 35  1  0  0  0  0
M  END
> <Name>
IA_33.cdx

> <SourceTag>
IA_33

> <Gold.Version>
5.2

> <Gold.Id.Protein>
6HGV|6HGV_protein|mol2

> <Gold.Goldscore.Fitness>
54.7714

> <Gold.Goldscore.Internal.Vdw>
-2.9138

> <Gold.Goldscore.Internal.Torsion>
-5.7297

> <Gold.Goldscore.External.Vdw>
42.6588

> <Gold.Goldscore.Internal.HBond>
0.0000

> <Gold.Goldscore.External.HBond>
1.2338

> <Gold.Goldscore.Internal.Correction>
-3.5253

> <Gold.Goldscore.Hbonds>
donor molecule, donor type, donor heavy atom, donor atom, acceptor molecule, acceptor atom, score
      L1  H    14    35       P1  1931  0.62

> <Gold.Goldscore.Internal.Vdw.Weighted>
-2.9138

> <Gold.Goldscore.Internal.Torsion.Weighted>
-5.7297

> <Gold.Goldscore.External.Vdw.Weighted>
58.6558

> <Gold.Goldscore.Internal.HBond.Weighted>
0.0000

> <Gold.Goldscore.External.HBond.Weighted>
1.2338

> <Gold.Goldscore.Internal.Correction.Weighted>
-3.5253

> <Gold.Protein.RotatedTorsions>
[ 3781 1176 1175 1172 ] final  127.38 input   60.00 | X-H torsion
[ 3847 1247 1246 1244 ] final  142.70 input   60.00 | X-H torsion
[ 4507 1931 1930 1928 ] final  169.72 input   60.00 | X-H torsion
[ 3677 1070 1069 1066 ] final -115.74 input   60.00 | X-H torsion
[ 3525  925  924  922 ] final   49.26 input   59.99 | X-H torsion
[ 4531 1957 1955 1953 ] final  -10.98 input   60.00 | X-H torsion

> <Gold.Protein.ActiveResidues>
 PHE267  PRO268  MET310  ASP335  TRP336  MET339  TYR343  THR360  PRO361  ILE363 
 PRO371  SER374  ILE375  ASN378  PHE381  TYR383  GLN384  PHE387  LEU408  LEU417 
 MET419  LEU428  TYR466  MET469  ASN472  ASP496  VAL498  LEU499  MET503  HIS524 
 TRP525 

> <Gold.Protein.RotatedAtoms>
   -2.9657  -29.7854  -30.8667 H   0  0  0  0  0  0  0  0  0  0  0  0  # atno 3525 bound_to 925 
  -11.5169  -23.6229  -31.4493 H   0  0  0  0  0  0  0  0  0  0  0  0  # atno 3677 bound_to 1070
   -9.7428  -37.0125  -32.3863 H   0  0  0  0  0  0  0  0  0  0  0  0  # atno 3781 bound_to 1176
  -14.3456  -27.9425  -37.8870 H   0  0  0  0  0  0  0  0  0  0  0  0  # atno 3847 bound_to 1247
  -12.7663  -23.8002  -40.0629 H   0  0  0  0  0  0  0  0  0  0  0  0  # atno 4507 bound_to 1931
   -2.7261  -32.3805  -36.7118 H   0  0  0  0  0  0  0  0  0  0  0  0  # atno 4531 bound_to 1957
  -10.8285  -37.2921  -33.5657 LP  0  0  0  0  0  0  0  0  0  0  0  0  # atno 5205 bound_to 1176
   -9.5415  -36.3275  -33.8485 LP  0  0  0  0  0  0  0  0  0  0  0  0  # atno 5206 bound_to 1176
  -15.3954  -28.9076  -37.1031 LP  0  0  0  0  0  0  0  0  0  0  0  0  # atno 5215 bound_to 1247
  -15.8294  -27.3880  -37.5140 LP  0  0  0  0  0  0  0  0  0  0  0  0  # atno 5216 bound_to 1247
  -12.7287  -24.8079  -38.7858 LP  0  0  0  0  0  0  0  0  0  0  0  0  # atno 5217 bound_to 1931
  -13.7020  -25.1315  -40.0565 LP  0  0  0  0  0  0  0  0  0  0  0  0  # atno 5218 bound_to 1931
  -11.5215  -22.2085  -30.6446 LP  0  0  0  0  0  0  0  0  0  0  0  0  # atno 5224 bound_to 1070
  -12.8187  -23.1978  -30.5702 LP  0  0  0  0  0  0  0  0  0  0  0  0  # atno 5225 bound_to 1070

$$$$
IA_171.cdx|SeH_inactivess_minimized|sdf|74|dock1
  -GOLD-   4172120143D 1   1.00000     0.00000

 42 42  0  0  0  0  0  0  0  0  1 V2000
  -16.8168  -24.9528  -38.4004 C   0  0  0  0  0  0  0  0  0  0  0  0
  -17.3944  -25.1401  -36.0620 C   0  0  0  0  0  0  0  0  0  0  0  0
  -15.4646  -25.0578  -38.0749 C   0  0  0  0  0  0  0  0  0  0  0  0
  -16.0421  -25.2452  -35.7363 C   0  0  0  0  0  0  0  0  0  0  0  0
  -17.7818  -24.9938  -37.3940 C   0  0  0  0  0  0  0  0  0  0  0  0
  -15.0772  -25.2040  -36.7428 C   0  0  0  0  0  0  0  0  0  0  0  0
   -7.9696  -28.8918  -35.0672 C   0  0  0  0  0  0  0  0  0  0  0  0
  -13.0193  -26.3581  -35.8260 C   0  0  0  0  0  0  0  0  0  0  0  0
  -19.5619  -23.5532  -38.4473 C   0  0  0  0  0  0  0  0  0  0  0  0
  -20.1444  -25.0683  -36.5185 C   0  0  0  0  0  0  0  0  0  0  0  0
  -11.0531  -24.8821  -35.3417 C   0  0  0  0  0  0  0  0  0  0  0  0
   -9.4226  -29.2616  -34.8644 C   0  0  0  0  0  0  0  0  0  0  0  0
  -10.3233  -28.0517  -34.6019 C   0  0  0  0  0  0  0  0  0  0  0  0
  -10.6896  -27.2627  -35.8582 C   0  0  0  0  0  0  0  0  0  0  0  0
  -19.2275  -24.8814  -37.7422 C   0  0  0  0  0  0  0  0  0  0  0  0
  -13.7032  -25.3112  -36.4117 N   0  0  0  0  0  0  0  0  0  0  0  0
  -11.6348  -26.2107  -35.6005 N   0  0  0  0  0  0  0  0  0  0  0  0
   -7.4381  -27.8596  -34.6828 O   0  0  0  0  0  0  0  0  0  0  0  0
   -7.2944  -29.8727  -35.7221 O   0  0  0  0  0  0  0  0  0  0  0  0
  -13.9383  -27.6858  -35.3226 S   0  0  0  0  0  0  0  0  0  0  0  0
  -17.1094  -24.8368  -39.4406 H   0  0  0  0  0  0  0  0  0  0  0  0
  -18.1395  -25.1722  -35.2714 H   0  0  0  0  0  0  0  0  0  0  0  0
  -14.7211  -25.0249  -38.8674 H   0  0  0  0  0  0  0  0  0  0  0  0
  -15.7513  -25.3578  -34.6950 H   0  0  0  0  0  0  0  0  0  0  0  0
  -20.6352  -23.4614  -38.6462 H   0  0  0  0  0  0  0  0  0  0  0  0
  -19.0378  -23.4651  -39.4052 H   0  0  0  0  0  0  0  0  0  0  0  0
  -19.2643  -22.7034  -37.8229 H   0  0  0  0  0  0  0  0  0  0  0  0
  -21.1969  -25.0486  -36.8229 H   0  0  0  0  0  0  0  0  0  0  0  0
  -19.9941  -24.2731  -35.7802 H   0  0  0  0  0  0  0  0  0  0  0  0
  -19.9593  -26.0252  -36.0183 H   0  0  0  0  0  0  0  0  0  0  0  0
  -11.7385  -24.2833  -34.7364 H   0  0  0  0  0  0  0  0  0  0  0  0
  -10.8685  -24.3600  -36.2845 H   0  0  0  0  0  0  0  0  0  0  0  0
  -10.1056  -24.9823  -34.8054 H   0  0  0  0  0  0  0  0  0  0  0  0
   -9.7752  -29.8171  -35.7391 H   0  0  0  0  0  0  0  0  0  0  0  0
   -9.4659  -29.9255  -33.9931 H   0  0  0  0  0  0  0  0  0  0  0  0
  -11.2437  -28.4009  -34.1172 H   0  0  0  0  0  0  0  0  0  0  0  0
   -9.8277  -27.3758  -33.8946 H   0  0  0  0  0  0  0  0  0  0  0  0
  -11.1106  -27.9040  -36.6375 H   0  0  0  0  0  0  0  0  0  0  0  0
   -9.7915  -26.7849  -36.2632 H   0  0  0  0  0  0  0  0  0  0  0  0
  -19.5052  -25.6816  -38.4544 H   0  0  0  0  0  0  0  0  0  0  0  0
  -13.1824  -24.4406  -36.4931 H   0  0  0  0  0  0  0  0  0  0  0  0
   -6.3284  -29.7243  -35.8098 H   0  0  0  0  0  0  0  0  0  0  0  0
  1  3  1  0  0  0  0
  1  5  2  0  0  0  0
  2  4  2  0  0  0  0
  2  5  1  0  0  0  0
  3  6  2  0  0  0  0
  4  6  1  0  0  0  0
  5 15  1  0  0  0  0
  6 16  1  0  0  0  0
  7 12  1  0  0  0  0
  7 18  2  0  0  0  0
  7 19  1  0  0  0  0
  8 16  1  0  0  0  0
  8 17  1  0  0  0  0
  8 20  2  0  0  0  0
  9 15  1  0  0  0  0
 10 15  1  0  0  0  0
 11 17  1  0  0  0  0
 12 13  1  0  0  0  0
 13 14  1  0  0  0  0
 14 17  1  0  0  0  0
  1 21  1  0  0  0  0
  2 22  1  0  0  0  0
  3 23  1  0  0  0  0
  4 24  1  0  0  0  0
  9 25  1  0  0  0  0
  9 26  1  0  0  0  0
  9 27  1  0  0  0  0
 10 28  1  0  0  0  0
 10 29  1  0  0  0  0
 10 30  1  0  0  0  0
 11 31  1  0  0  0  0
 11 32  1  0  0  0  0
 11 33  1  0  0  0  0
 12 34  1  0  0  0  0
 12 35  1  0  0  0  0
 13 36  1  0  0  0  0
 13 37  1  0  0  0  0
 14 38  1  0  0  0  0
 14 39  1  0  0  0  0
 15 40  1  0  0  0  0
 16 41  1  0  0  0  0
 19 42  1  0  0  0  0
M  END
> <Name>
IA_171.cdx

> <SourceTag>
IA_171

> <Gold.Version>
5.2

> <Gold.Id.Protein>
6HGV|6HGV_protein|mol2

> <Gold.Goldscore.Fitness>
54.7212

> <Gold.Goldscore.Internal.Vdw>
-7.5175

> <Gold.Goldscore.Internal.Torsion>
-18.6845

> <Gold.Goldscore.External.Vdw>
44.3860

> <Gold.Goldscore.Internal.HBond>
0.0000

> <Gold.Goldscore.External.HBond>
0.8730

> <Gold.Goldscore.Internal.Correction>
-19.0194

> <Gold.Goldscore.Hbonds>
donor molecule, donor type, donor heavy atom, donor atom, acceptor molecule, acceptor atom, score
      L1  H    16    41       P1   854  0.15

> <Gold.Goldscore.Internal.Vdw.Weighted>
-7.5175

> <Gold.Goldscore.Internal.Torsion.Weighted>
-18.6845

> <Gold.Goldscore.External.Vdw.Weighted>
61.0307

> <Gold.Goldscore.Internal.HBond.Weighted>
0.0000

> <Gold.Goldscore.External.HBond.Weighted>
0.8730

> <Gold.Goldscore.Internal.Correction.Weighted>
-19.0194

> <Gold.Protein.RotatedTorsions>
[ 3781 1176 1175 1172 ] final  151.56 input   60.00 | X-H torsion
[ 3847 1247 1246 1244 ] final  -62.27 input   60.00 | X-H torsion
[ 4507 1931 1930 1928 ] final   85.61 input   60.00 | X-H torsion
[ 3677 1070 1069 1066 ] final -116.24 input   60.00 | X-H torsion
[ 3525  925  924  922 ] final  166.26 input   59.99 | X-H torsion
[ 4531 1957 1955 1953 ] final  -25.51 input   60.00 | X-H torsion

> <Gold.Protein.ActiveResidues>
 PHE267  PRO268  MET310  ASP335  TRP336  MET339  TYR343  THR360  PRO361  ILE363 
 PRO371  SER374  ILE375  ASN378  PHE381  TYR383  GLN384  PHE387  LEU408  LEU417 
 MET419  LEU428  TYR466  MET469  ASN472  ASP496  VAL498  LEU499  MET503  HIS524 
 TRP525 

> <Gold.Protein.RotatedAtoms>
   -2.1263  -30.2675  -29.5971 H   0  0  0  0  0  0  0  0  0  0  0  0  # atno 3525 bound_to 925 
  -11.5105  -23.6180  -31.4497 H   0  0  0  0  0  0  0  0  0  0  0  0  # atno 3677 bound_to 1070
   -9.4663  -36.7743  -32.5298 H   0  0  0  0  0  0  0  0  0  0  0  0  # atno 3781 bound_to 1176
  -16.0580  -27.8361  -37.2556 H   0  0  0  0  0  0  0  0  0  0  0  0  # atno 3847 bound_to 1247
  -12.4782  -24.3144  -38.9559 H   0  0  0  0  0  0  0  0  0  0  0  0  # atno 4507 bound_to 1931
   -2.5231  -32.2642  -36.7484 H   0  0  0  0  0  0  0  0  0  0  0  0  # atno 4531 bound_to 1957
  -10.8065  -37.4174  -33.1919 LP  0  0  0  0  0  0  0  0  0  0  0  0  # atno 5205 bound_to 1176
   -9.8419  -36.4421  -34.0779 LP  0  0  0  0  0  0  0  0  0  0  0  0  # atno 5206 bound_to 1176
  -14.6365  -27.4621  -37.9539 LP  0  0  0  0  0  0  0  0  0  0  0  0  # atno 5215 bound_to 1247
  -14.8638  -28.9407  -37.2991 LP  0  0  0  0  0  0  0  0  0  0  0  0  # atno 5216 bound_to 1247
  -13.5685  -25.3697  -39.5437 LP  0  0  0  0  0  0  0  0  0  0  0  0  # atno 5217 bound_to 1931
  -13.1522  -24.0519  -40.4135 LP  0  0  0  0  0  0  0  0  0  0  0  0  # atno 5218 bound_to 1931
  -11.5280  -22.2064  -30.6402 LP  0  0  0  0  0  0  0  0  0  0  0  0  # atno 5224 bound_to 1070
  -12.8186  -23.2048  -30.5742 LP  0  0  0  0  0  0  0  0  0  0  0  0  # atno 5225 bound_to 1070

$$$$
IA_197.cdx|SeH_inactivess_minimized|sdf|96|dock5
  -GOLD-   4172120333D 1   1.00000     0.00000

 28 29  0  0  0  0  0  0  0  0  1 V2000
  -13.0797  -28.0988  -35.1960 C   0  0  0  0  0  0  0  0  0  0  0  0
  -18.5368  -25.3390  -35.8850 C   0  0  0  0  0  0  0  0  0  0  0  0
   -9.2938  -26.0884  -34.4053 C   0  0  0  0  0  0  0  0  0  0  0  0
  -18.2630  -25.4224  -37.2502 C   0  0  0  0  0  0  0  0  0  0  0  0
  -17.4897  -25.3174  -34.9637 C   0  0  0  0  0  0  0  0  0  0  0  0
  -10.4034  -25.2519  -34.2846 C   0  0  0  0  0  0  0  0  0  0  0  0
   -9.2292  -27.0155  -35.4455 C   0  0  0  0  0  0  0  0  0  0  0  0
  -16.9421  -25.4843  -37.6940 C   0  0  0  0  0  0  0  0  0  0  0  0
  -16.1688  -25.3792  -35.4076 C   0  0  0  0  0  0  0  0  0  0  0  0
  -11.4484  -25.3425  -35.2040 C   0  0  0  0  0  0  0  0  0  0  0  0
  -10.2742  -27.1061  -36.3649 C   0  0  0  0  0  0  0  0  0  0  0  0
  -15.8950  -25.4627  -36.7727 C   0  0  0  0  0  0  0  0  0  0  0  0
  -11.3838  -26.2696  -36.2442 C   0  0  0  0  0  0  0  0  0  0  0  0
  -13.7085  -26.4511  -36.6103 C   0  0  0  0  0  0  0  0  0  0  0  0
  -12.2615  -28.8096  -34.7810 N   0  0  0  0  0  0  0  0  0  0  0  0
  -14.0302  -27.2783  -35.6654 N   0  0  0  0  0  0  0  0  0  0  0  0
  -14.6060  -25.5247  -37.2052 O   0  0  0  0  0  0  0  0  0  0  0  0
  -12.4332  -26.3621  -37.1662 O   0  0  0  0  0  0  0  0  0  0  0  0
  -19.5652  -25.2902  -35.5391 H   0  0  0  0  0  0  0  0  0  0  0  0
   -8.4797  -26.0178  -33.6899 H   0  0  0  0  0  0  0  0  0  0  0  0
  -19.0783  -25.4395  -37.9678 H   0  0  0  0  0  0  0  0  0  0  0  0
  -17.7038  -25.2523  -33.9008 H   0  0  0  0  0  0  0  0  0  0  0  0
  -10.4540  -24.5300  -33.4745 H   0  0  0  0  0  0  0  0  0  0  0  0
   -8.3646  -27.6665  -35.5389 H   0  0  0  0  0  0  0  0  0  0  0  0
  -16.7356  -25.5506  -38.7587 H   0  0  0  0  0  0  0  0  0  0  0  0
  -15.3572  -25.3639  -34.6852 H   0  0  0  0  0  0  0  0  0  0  0  0
  -12.3107  -24.6890  -35.1035 H   0  0  0  0  0  0  0  0  0  0  0  0
  -10.2192  -27.8314  -37.1722 H   0  0  0  0  0  0  0  0  0  0  0  0
  1 15  3  0  0  0  0
  1 16  1  0  0  0  0
  2  4  2  0  0  0  0
  2  5  1  0  0  0  0
  3  6  2  0  0  0  0
  3  7  1  0  0  0  0
  4  8  1  0  0  0  0
  5  9  2  0  0  0  0
  6 10  1  0  0  0  0
  7 11  2  0  0  0  0
  8 12  2  0  0  0  0
  9 12  1  0  0  0  0
 10 13  2  0  0  0  0
 11 13  1  0  0  0  0
 12 17  1  0  0  0  0
 13 18  1  0  0  0  0
 14 16  2  0  0  0  0
 14 17  1  0  0  0  0
 14 18  1  0  0  0  0
  2 19  1  0  0  0  0
  3 20  1  0  0  0  0
  4 21  1  0  0  0  0
  5 22  1  0  0  0  0
  6 23  1  0  0  0  0
  7 24  1  0  0  0  0
  8 25  1  0  0  0  0
  9 26  1  0  0  0  0
 10 27  1  0  0  0  0
 11 28  1  0  0  0  0
M  END
> <Name>
IA_197.cdx

> <SourceTag>
IA_197

> <Gold.Version>
5.2

> <Gold.Id.Protein>
6HGV|6HGV_protein|mol2

> <Gold.Goldscore.Fitness>
53.9113

> <Gold.Goldscore.Internal.Vdw>
1.2941

> <Gold.Goldscore.Internal.Torsion>
-9.3945

> <Gold.Goldscore.External.Vdw>
42.1615

> <Gold.Goldscore.Internal.HBond>
0.0000

> <Gold.Goldscore.External.HBond>
1.2455

> <Gold.Goldscore.Internal.Correction>
-2.7943

> <Gold.Goldscore.Hbonds>
donor molecule, donor type, donor heavy atom, donor atom, acceptor molecule, acceptor atom, score
      P1  H  1931  4507       L1    17  0.26
      P1  H  1931  4507       L1    18  0.36

> <Gold.Goldscore.Internal.Vdw.Weighted>
1.2941

> <Gold.Goldscore.Internal.Torsion.Weighted>
-9.3945

> <Gold.Goldscore.External.Vdw.Weighted>
57.9720

> <Gold.Goldscore.Internal.HBond.Weighted>
0.0000

> <Gold.Goldscore.External.HBond.Weighted>
1.2455

> <Gold.Goldscore.Internal.Correction.Weighted>
-2.7943

> <Gold.Protein.RotatedTorsions>
[ 3781 1176 1175 1172 ] final  163.60 input   60.00 | X-H torsion
[ 3847 1247 1246 1244 ] final  -25.52 input   60.00 | X-H torsion
[ 4507 1931 1930 1928 ] final   20.61 input   60.00 | X-H torsion
[ 3677 1070 1069 1066 ] final -148.70 input   60.00 | X-H torsion
[ 3525  925  924  922 ] final -148.67 input   59.99 | X-H torsion
[ 4531 1957 1955 1953 ] final -171.95 input   60.00 | X-H torsion

> <Gold.Protein.ActiveResidues>
 PHE267  PRO268  MET310  ASP335  TRP336  MET339  TYR343  THR360  PRO361  ILE363 
 PRO371  SER374  ILE375  ASN378  PHE381  TYR383  GLN384  PHE387  LEU408  LEU417 
 MET419  LEU428  TYR466  MET469  ASN472  ASP496  VAL498  LEU499  MET503  HIS524 
 TRP525 

> <Gold.Protein.RotatedAtoms>
   -2.6003  -30.1079  -29.0826 H   0  0  0  0  0  0  0  0  0  0  0  0  # atno 3525 bound_to 925 
  -11.1822  -23.2161  -31.3822 H   0  0  0  0  0  0  0  0  0  0  0  0  # atno 3677 bound_to 1070
   -9.3635  -36.6600  -32.6519 H   0  0  0  0  0  0  0  0  0  0  0  0  # atno 3781 bound_to 1176
  -15.9631  -28.3918  -37.0803 H   0  0  0  0  0  0  0  0  0  0  0  0  # atno 3847 bound_to 1247
  -13.0325  -25.1518  -38.8970 H   0  0  0  0  0  0  0  0  0  0  0  0  # atno 4507 bound_to 1931
   -1.4209  -33.6589  -36.9820 H   0  0  0  0  0  0  0  0  0  0  0  0  # atno 4531 bound_to 1957
  -10.7440  -37.4452  -33.0064 LP  0  0  0  0  0  0  0  0  0  0  0  0  # atno 5205 bound_to 1176
  -10.0079  -36.5294  -34.1404 LP  0  0  0  0  0  0  0  0  0  0  0  0  # atno 5206 bound_to 1176
  -15.1605  -27.2022  -37.8476 LP  0  0  0  0  0  0  0  0  0  0  0  0  # atno 5215 bound_to 1247
  -14.4353  -28.6410  -37.5819 LP  0  0  0  0  0  0  0  0  0  0  0  0  # atno 5216 bound_to 1247
  -13.6321  -24.7767  -40.3626 LP  0  0  0  0  0  0  0  0  0  0  0  0  # atno 5217 bound_to 1931
  -12.5304  -23.8016  -39.6539 LP  0  0  0  0  0  0  0  0  0  0  0  0  # atno 5218 bound_to 1931
  -12.0002  -22.2031  -30.4061 LP  0  0  0  0  0  0  0  0  0  0  0  0  # atno 5224 bound_to 1070
  -12.6771  -23.6129  -30.8762 LP  0  0  0  0  0  0  0  0  0  0  0  0  # atno 5225 bound_to 1070

$$$$
IA_147.cdx|SeH_inactivess_minimized|sdf|48|dock7
  -GOLD-   4172119393D 1   1.00000     0.00000

 43 45  0  0  0  0  0  0  0  0  1 V2000
  -17.7758  -23.6871  -41.1058 C   0  0  0  0  0  0  0  0  0  0  0  0
  -16.6890  -24.5297  -41.3390 C   0  0  0  0  0  0  0  0  0  0  0  0
  -17.8008  -22.8792  -39.9689 C   0  0  0  0  0  0  0  0  0  0  0  0
   -7.5382  -31.5887  -35.3283 C   0  0  0  0  0  0  0  0  0  0  0  0
  -10.8158  -27.0487  -35.8406 C   0  0  0  0  0  0  0  0  0  0  0  0
  -12.6497  -28.3194  -34.9138 C   0  0  0  0  0  0  0  0  0  0  0  0
   -6.1687  -30.1465  -34.0241 C   0  0  0  0  0  0  0  0  0  0  0  0
  -15.6522  -23.7569  -39.2982 C   0  0  0  0  0  0  0  0  0  0  0  0
   -6.2667  -31.1706  -34.9523 C   0  0  0  0  0  0  0  0  0  0  0  0
  -12.1764  -27.3536  -35.8020 C   0  0  0  0  0  0  0  0  0  0  0  0
  -10.4019  -28.6755  -34.1029 C   0  0  0  0  0  0  0  0  0  0  0  0
  -15.6271  -24.5646  -40.4352 C   0  0  0  0  0  0  0  0  0  0  0  0
  -16.7390  -22.9142  -39.0650 C   0  0  0  0  0  0  0  0  0  0  0  0
   -8.6573  -30.9788  -34.7725 C   0  0  0  0  0  0  0  0  0  0  0  0
   -9.9285  -27.7097  -34.9911 C   0  0  0  0  0  0  0  0  0  0  0  0
  -11.7625  -28.9804  -34.0643 C   0  0  0  0  0  0  0  0  0  0  0  0
   -8.4524  -29.9634  -33.8522 C   0  0  0  0  0  0  0  0  0  0  0  0
  -14.5446  -23.7931  -38.3556 C   0  0  0  0  0  0  0  0  0  0  0  0
  -13.0643  -25.3318  -37.0296 C   0  0  0  0  0  0  0  0  0  0  0  0
   -5.0493  -31.8006  -35.5297 C   0  0  0  0  0  0  0  0  0  0  0  0
   -7.2326  -29.5299  -33.4624 N   0  0  0  0  0  0  0  0  0  0  0  0
  -13.0756  -26.6817  -36.6625 N   0  0  0  0  0  0  0  0  0  0  0  0
  -14.1289  -25.0635  -37.9141 N   0  0  0  0  0  0  0  0  0  0  0  0
  -13.9916  -22.7400  -37.9945 O   0  0  0  0  0  0  0  0  0  0  0  0
  -12.2650  -24.4771  -36.6562 O   0  0  0  0  0  0  0  0  0  0  0  0
   -9.5332  -29.3243  -33.2730 O   0  0  0  0  0  0  0  0  0  0  0  0
  -14.5875  -25.3782  -40.6687 F   0  0  0  0  0  0  0  0  0  0  0  0
  -16.7731  -22.1338  -37.9755 F   0  0  0  0  0  0  0  0  0  0  0  0
   -5.3078  -32.6453  -36.5737 F   0  0  0  0  0  0  0  0  0  0  0  0
   -4.1435  -30.9012  -36.0202 F   0  0  0  0  0  0  0  0  0  0  0  0
   -4.3591  -32.5504  -34.6193 F   0  0  0  0  0  0  0  0  0  0  0  0
  -10.2325  -31.4916  -35.2339 Cl  0  0  0  0  0  0  0  0  0  0  0  0
   -8.2511  -27.3116  -35.0648 Cl  0  0  0  0  0  0  0  0  0  0  0  0
  -12.3790  -30.1701  -32.9765 Cl  0  0  0  0  0  0  0  0  0  0  0  0
  -18.6024  -23.6597  -41.8098 H   0  0  0  0  0  0  0  0  0  0  0  0
  -16.6695  -25.1587  -42.2240 H   0  0  0  0  0  0  0  0  0  0  0  0
  -18.6470  -22.2233  -39.7870 H   0  0  0  0  0  0  0  0  0  0  0  0
   -7.6513  -32.3899  -36.0550 H   0  0  0  0  0  0  0  0  0  0  0  0
  -10.4513  -26.2945  -36.5350 H   0  0  0  0  0  0  0  0  0  0  0  0
  -13.7121  -28.5529  -34.8854 H   0  0  0  0  0  0  0  0  0  0  0  0
   -5.2028  -29.7778  -33.6930 H   0  0  0  0  0  0  0  0  0  0  0  0
  -13.8168  -27.2540  -37.0588 H   0  0  0  0  0  0  0  0  0  0  0  0
  -14.6456  -25.8636  -38.2666 H   0  0  0  0  0  0  0  0  0  0  0  0
  1  2  2  0  0  0  0
  1  3  1  0  0  0  0
  2 12  1  0  0  0  0
  3 13  2  0  0  0  0
  4  9  1  0  0  0  0
  4 14  2  0  0  0  0
  5 10  2  0  0  0  0
  5 15  1  0  0  0  0
  6 10  1  0  0  0  0
  6 16  2  0  0  0  0
  7  9  2  0  0  0  0
  7 21  1  0  0  0  0
  8 12  2  0  0  0  0
  8 13  1  0  0  0  0
  8 18  1  0  0  0  0
  9 20  1  0  0  0  0
 10 22  1  0  0  0  0
 11 15  2  0  0  0  0
 11 16  1  0  0  0  0
 11 26  1  0  0  0  0
 12 27  1  0  0  0  0
 13 28  1  0  0  0  0
 14 17  1  0  0  0  0
 14 32  1  0  0  0  0
 15 33  1  0  0  0  0
 16 34  1  0  0  0  0
 17 21  2  0  0  0  0
 17 26  1  0  0  0  0
 18 23  1  0  0  0  0
 18 24  2  0  0  0  0
 19 22  1  0  0  0  0
 19 23  1  0  0  0  0
 19 25  2  0  0  0  0
 20 29  1  0  0  0  0
 20 30  1  0  0  0  0
 20 31  1  0  0  0  0
  1 35  1  0  0  0  0
  2 36  1  0  0  0  0
  3 37  1  0  0  0  0
  4 38  1  0  0  0  0
  5 39  1  0  0  0  0
  6 40  1  0  0  0  0
  7 41  1  0  0  0  0
 22 42  1  0  0  0  0
 23 43  1  0  0  0  0
M  END
> <Name>
IA_147.cdx

> <SourceTag>
IA_147

> <Gold.Version>
5.2

> <Gold.Id.Protein>
6HGV|6HGV_protein|mol2

> <Gold.Goldscore.Fitness>
67.5395

> <Gold.Goldscore.Internal.Vdw>
-1.8950

> <Gold.Goldscore.Internal.Torsion>
-10.7676

> <Gold.Goldscore.External.Vdw>
48.4342

> <Gold.Goldscore.Internal.HBond>
0.0000

> <Gold.Goldscore.External.HBond>
2.2231

> <Gold.Goldscore.Internal.Correction>
-11.3819

> <Gold.Goldscore.Hbonds>
donor molecule, donor type, donor heavy atom, donor atom, acceptor molecule, acceptor atom, score
      L1  H    22    42       P1  1247  0.99
      L1  H    23    43       P1  1247  0.12

> <Gold.Goldscore.Internal.Vdw.Weighted>
-1.8950

> <Gold.Goldscore.Internal.Torsion.Weighted>
-10.7676

> <Gold.Goldscore.External.Vdw.Weighted>
66.5971

> <Gold.Goldscore.Internal.HBond.Weighted>
0.0000

> <Gold.Goldscore.External.HBond.Weighted>
2.2231

> <Gold.Goldscore.Internal.Correction.Weighted>
-11.3819

> <Gold.Protein.RotatedTorsions>
[ 3781 1176 1175 1172 ] final -100.56 input   60.00 | X-H torsion
[ 3847 1247 1246 1244 ] final  -51.16 input   60.00 | X-H torsion
[ 4507 1931 1930 1928 ] final  170.12 input   60.00 | X-H torsion
[ 3677 1070 1069 1066 ] final  -46.63 input   60.00 | X-H torsion
[ 3525  925  924  922 ] final   27.62 input   59.99 | X-H torsion
[ 4531 1957 1955 1953 ] final   74.86 input   60.00 | X-H torsion

> <Gold.Protein.ActiveResidues>
 PHE267  PRO268  MET310  ASP335  TRP336  MET339  TYR343  THR360  PRO361  ILE363 
 PRO371  SER374  ILE375  ASN378  PHE381  TYR383  GLN384  PHE387  LEU408  LEU417 
 MET419  LEU428  TYR466  MET469  ASN472  ASP496  VAL498  LEU499  MET503  HIS524 
 TRP525 

> <Gold.Protein.RotatedAtoms>
   -3.2783  -29.6582  -30.7679 H   0  0  0  0  0  0  0  0  0  0  0  0  # atno 3525 bound_to 925 
  -12.4909  -23.7596  -31.0483 H   0  0  0  0  0  0  0  0  0  0  0  0  # atno 3677 bound_to 1070
   -9.6847  -36.3789  -33.9745 H   0  0  0  0  0  0  0  0  0  0  0  0  # atno 3781 bound_to 1176
  -16.0668  -28.0040  -37.1879 H   0  0  0  0  0  0  0  0  0  0  0  0  # atno 3847 bound_to 1247
  -12.7702  -23.8015  -40.0680 H   0  0  0  0  0  0  0  0  0  0  0  0  # atno 4507 bound_to 1931
   -2.9564  -33.6344  -36.6897 H   0  0  0  0  0  0  0  0  0  0  0  0  # atno 4531 bound_to 1957
   -9.5933  -36.8923  -32.4330 LP  0  0  0  0  0  0  0  0  0  0  0  0  # atno 5205 bound_to 1176
  -10.8352  -37.3654  -33.3819 LP  0  0  0  0  0  0  0  0  0  0  0  0  # atno 5206 bound_to 1176
  -14.7803  -27.3505  -37.9402 LP  0  0  0  0  0  0  0  0  0  0  0  0  # atno 5215 bound_to 1247
  -14.7111  -28.8832  -37.3810 LP  0  0  0  0  0  0  0  0  0  0  0  0  # atno 5216 bound_to 1247
  -12.7249  -24.8025  -38.7859 LP  0  0  0  0  0  0  0  0  0  0  0  0  # atno 5217 bound_to 1931
  -13.7018  -25.1356  -40.0513 LP  0  0  0  0  0  0  0  0  0  0  0  0  # atno 5218 bound_to 1931
  -11.0950  -22.9558  -31.2799 LP  0  0  0  0  0  0  0  0  0  0  0  0  # atno 5224 bound_to 1070
  -12.2644  -22.3128  -30.3387 LP  0  0  0  0  0  0  0  0  0  0  0  0  # atno 5225 bound_to 1070

$$$$
IA_119.cdx|SeH_inactivess_minimized|sdf|21|dock5
  -GOLD-   4172118573D 1   1.00000     0.00000

 36 36  0  0  0  0  0  0  0  0  1 V2000
   -8.9561  -27.1755  -34.8991 C   0  0  0  0  0  0  0  0  0  0  0  0
   -9.5194  -26.1572  -34.1302 C   0  0  0  0  0  0  0  0  0  0  0  0
   -9.6080  -27.6242  -36.0478 C   0  0  0  0  0  0  0  0  0  0  0  0
  -10.7347  -25.5875  -34.5098 C   0  0  0  0  0  0  0  0  0  0  0  0
  -10.8233  -27.0546  -36.4274 C   0  0  0  0  0  0  0  0  0  0  0  0
  -11.3867  -26.0361  -35.6584 C   0  0  0  0  0  0  0  0  0  0  0  0
  -21.5497  -22.7987  -39.0064 C   0  0  0  0  0  0  0  0  0  0  0  0
  -13.5816  -25.9870  -36.9077 C   0  0  0  0  0  0  0  0  0  0  0  0
  -20.4212  -23.7721  -39.2577 C   0  0  0  0  0  0  0  0  0  0  0  0
  -19.2174  -23.4965  -38.3566 C   0  0  0  0  0  0  0  0  0  0  0  0
  -18.1289  -24.5544  -38.5476 C   0  0  0  0  0  0  0  0  0  0  0  0
  -16.8982  -24.3254  -37.6669 C   0  0  0  0  0  0  0  0  0  0  0  0
  -15.8129  -25.3792  -37.8567 C   0  0  0  0  0  0  0  0  0  0  0  0
  -12.6189  -25.4582  -36.0433 N   0  0  0  0  0  0  0  0  0  0  0  0
  -14.6660  -25.1069  -37.0327 N   0  0  0  0  0  0  0  0  0  0  0  0
  -21.7596  -22.2111  -37.9543 O   0  0  0  0  0  0  0  0  0  0  0  0
  -13.5258  -27.0650  -37.4948 O   0  0  0  0  0  0  0  0  0  0  0  0
  -22.3278  -22.6457  -40.1098 O   0  0  0  0  0  0  0  0  0  0  0  0
   -8.0093  -27.6189  -34.6042 H   0  0  0  0  0  0  0  0  0  0  0  0
   -9.0116  -25.8070  -33.2362 H   0  0  0  0  0  0  0  0  0  0  0  0
   -9.1686  -28.4165  -36.6468 H   0  0  0  0  0  0  0  0  0  0  0  0
  -11.1641  -24.7943  -33.9028 H   0  0  0  0  0  0  0  0  0  0  0  0
  -11.3224  -27.4122  -37.3246 H   0  0  0  0  0  0  0  0  0  0  0  0
  -20.1220  -23.6856  -40.3083 H   0  0  0  0  0  0  0  0  0  0  0  0
  -20.7967  -24.7848  -39.0731 H   0  0  0  0  0  0  0  0  0  0  0  0
  -19.5385  -23.4808  -37.3078 H   0  0  0  0  0  0  0  0  0  0  0  0
  -18.8201  -22.5001  -38.5818 H   0  0  0  0  0  0  0  0  0  0  0  0
  -18.5424  -25.5415  -38.3067 H   0  0  0  0  0  0  0  0  0  0  0  0
  -17.8256  -24.5878  -39.6012 H   0  0  0  0  0  0  0  0  0  0  0  0
  -17.2204  -24.3261  -36.6177 H   0  0  0  0  0  0  0  0  0  0  0  0
  -16.4841  -23.3275  -37.8586 H   0  0  0  0  0  0  0  0  0  0  0  0
  -15.4616  -25.4067  -38.8921 H   0  0  0  0  0  0  0  0  0  0  0  0
  -16.1789  -26.3741  -37.5856 H   0  0  0  0  0  0  0  0  0  0  0  0
  -12.8252  -24.5482  -35.6390 H   0  0  0  0  0  0  0  0  0  0  0  0
  -14.6403  -24.2311  -36.5139 H   0  0  0  0  0  0  0  0  0  0  0  0
  -23.0812  -22.0264  -40.0020 H   0  0  0  0  0  0  0  0  0  0  0  0
  1  2  2  0  0  0  0
  1  3  1  0  0  0  0
  2  4  1  0  0  0  0
  3  5  2  0  0  0  0
  4  6  2  0  0  0  0
  5  6  1  0  0  0  0
  6 14  1  0  0  0  0
  7  9  1  0  0  0  0
  7 16  2  0  0  0  0
  7 18  1  0  0  0  0
  8 14  1  0  0  0  0
  8 15  1  0  0  0  0
  8 17  2  0  0  0  0
  9 10  1  0  0  0  0
 10 11  1  0  0  0  0
 11 12  1  0  0  0  0
 12 13  1  0  0  0  0
 13 15  1  0  0  0  0
  1 19  1  0  0  0  0
  2 20  1  0  0  0  0
  3 21  1  0  0  0  0
  4 22  1  0  0  0  0
  5 23  1  0  0  0  0
  9 24  1  0  0  0  0
  9 25  1  0  0  0  0
 10 26  1  0  0  0  0
 10 27  1  0  0  0  0
 11 28  1  0  0  0  0
 11 29  1  0  0  0  0
 12 30  1  0  0  0  0
 12 31  1  0  0  0  0
 13 32  1  0  0  0  0
 13 33  1  0  0  0  0
 14 34  1  0  0  0  0
 15 35  1  0  0  0  0
 18 36  1  0  0  0  0
M  END
> <Name>
IA_119.cdx

> <SourceTag>
IA_119

> <Gold.Version>
5.2

> <Gold.Id.Protein>
6HGV|6HGV_protein|mol2

> <Gold.Goldscore.Fitness>
58.5949

> <Gold.Goldscore.Internal.Vdw>
-3.5822

> <Gold.Goldscore.Internal.Torsion>
-2.2458

> <Gold.Goldscore.External.Vdw>
38.5835

> <Gold.Goldscore.Internal.HBond>
0.0000

> <Gold.Goldscore.External.HBond>
6.8538

> <Gold.Goldscore.Internal.Correction>
-4.5168

> <Gold.Goldscore.Hbonds>
donor molecule, donor type, donor heavy atom, donor atom, acceptor molecule, acceptor atom, score
      L1  H    14    34       P1   853  0.46
      L1  H    15    35       P1   853  0.68

> <Gold.Goldscore.Internal.Vdw.Weighted>
-3.5822

> <Gold.Goldscore.Internal.Torsion.Weighted>
-2.2458

> <Gold.Goldscore.External.Vdw.Weighted>
53.0523

> <Gold.Goldscore.Internal.HBond.Weighted>
0.0000

> <Gold.Goldscore.External.HBond.Weighted>
6.8538

> <Gold.Goldscore.Internal.Correction.Weighted>
-4.5168

> <Gold.Protein.RotatedTorsions>
[ 3781 1176 1175 1172 ] final  179.44 input   60.00 | X-H torsion
[ 3847 1247 1246 1244 ] final   11.38 input   60.00 | X-H torsion
[ 4507 1931 1930 1928 ] final   84.28 input   60.00 | X-H torsion
[ 3677 1070 1069 1066 ] final -117.65 input   60.00 | X-H torsion
[ 3525  925  924  922 ] final    9.99 input   59.99 | X-H torsion
[ 4531 1957 1955 1953 ] final   -5.30 input   60.00 | X-H torsion

> <Gold.Protein.ActiveResidues>
 PHE267  PRO268  MET310  ASP335  TRP336  MET339  TYR343  THR360  PRO361  ILE363 
 PRO371  SER374  ILE375  ASN378  PHE381  TYR383  GLN384  PHE387  LEU408  LEU417 
 MET419  LEU428  TYR466  MET469  ASN472  ASP496  VAL498  LEU499  MET503  HIS524 
 TRP525 

> <Gold.Protein.RotatedAtoms>
   -3.4966  -29.5783  -30.5998 H   0  0  0  0  0  0  0  0  0  0  0  0  # atno 3525 bound_to 925 
  -11.4924  -23.6037  -31.4504 H   0  0  0  0  0  0  0  0  0  0  0  0  # atno 3677 bound_to 1070
   -9.2739  -36.5250  -32.8526 H   0  0  0  0  0  0  0  0  0  0  0  0  # atno 3781 bound_to 1176
  -15.5584  -28.8244  -37.0736 H   0  0  0  0  0  0  0  0  0  0  0  0  # atno 3847 bound_to 1247
  -12.4839  -24.3320  -38.9445 H   0  0  0  0  0  0  0  0  0  0  0  0  # atno 4507 bound_to 1931
   -2.7966  -32.4395  -36.6994 H   0  0  0  0  0  0  0  0  0  0  0  0  # atno 4531 bound_to 1957
  -10.6151  -37.4437  -32.7809 LP  0  0  0  0  0  0  0  0  0  0  0  0  # atno 5205 bound_to 1176
  -10.2271  -36.6668  -34.1638 LP  0  0  0  0  0  0  0  0  0  0  0  0  # atno 5206 bound_to 1176
  -15.6972  -27.2919  -37.6027 LP  0  0  0  0  0  0  0  0  0  0  0  0  # atno 5215 bound_to 1247
  -14.3062  -28.1156  -37.8336 LP  0  0  0  0  0  0  0  0  0  0  0  0  # atno 5216 bound_to 1247
  -13.5774  -25.3660  -39.5633 LP  0  0  0  0  0  0  0  0  0  0  0  0  # atno 5217 bound_to 1931
  -13.1376  -24.0378  -40.4053 LP  0  0  0  0  0  0  0  0  0  0  0  0  # atno 5218 bound_to 1931
  -11.5468  -22.2008  -30.6277 LP  0  0  0  0  0  0  0  0  0  0  0  0  # atno 5224 bound_to 1070
  -12.8180  -23.2249  -30.5859 LP  0  0  0  0  0  0  0  0  0  0  0  0  # atno 5225 bound_to 1070

$$$$
IA_157.cdx|SeH_inactivess_minimized|sdf|58|dock10
  -GOLD-   4172119533D 1   1.00000     0.00000

 29 28  0  0  0  0  0  0  0  0  1 V2000
  -18.5487  -22.5785  -37.9533 C   0  0  0  0  0  0  0  0  0  0  0  0
  -19.9329  -24.7027  -37.2178 C   0  0  0  0  0  0  0  0  0  0  0  0
  -21.9476  -23.3018  -37.7601 C   0  0  0  0  0  0  0  0  0  0  0  0
  -20.4158  -24.0598  -39.6027 C   0  0  0  0  0  0  0  0  0  0  0  0
  -17.7661  -24.7635  -39.2118 C   0  0  0  0  0  0  0  0  0  0  0  0
  -15.4669  -24.1269  -38.4219 C   0  0  0  0  0  0  0  0  0  0  0  0
  -17.2064  -24.8533  -36.7597 C   0  0  0  0  0  0  0  0  0  0  0  0
  -20.5031  -23.6256  -38.1400 C   0  0  0  0  0  0  0  0  0  0  0  0
  -16.9569  -24.1281  -38.0817 C   0  0  0  0  0  0  0  0  0  0  0  0
  -19.7075  -22.4014  -37.9708 N   0  0  0  0  0  0  0  0  0  0  0  0
  -17.3849  -22.7350  -37.9332 N   0  0  0  0  0  0  0  0  0  0  0  0
  -19.3200  -25.4182  -37.7780 H   0  0  0  0  0  0  0  0  0  0  0  0
  -19.3079  -24.2633  -36.4326 H   0  0  0  0  0  0  0  0  0  0  0  0
  -20.7336  -25.2728  -36.7329 H   0  0  0  0  0  0  0  0  0  0  0  0
  -22.3425  -22.4814  -38.3702 H   0  0  0  0  0  0  0  0  0  0  0  0
  -22.0203  -22.9891  -36.7119 H   0  0  0  0  0  0  0  0  0  0  0  0
  -22.5998  -24.1711  -37.8995 H   0  0  0  0  0  0  0  0  0  0  0  0
  -21.2705  -23.6859  -40.1781 H   0  0  0  0  0  0  0  0  0  0  0  0
  -19.5009  -23.6849  -40.0743 H   0  0  0  0  0  0  0  0  0  0  0  0
  -20.4194  -25.1522  -39.6913 H   0  0  0  0  0  0  0  0  0  0  0  0
  -18.2278  -23.9978  -39.8457 H   0  0  0  0  0  0  0  0  0  0  0  0
  -17.1341  -25.3933  -39.8475 H   0  0  0  0  0  0  0  0  0  0  0  0
  -18.5758  -25.3873  -38.8165 H   0  0  0  0  0  0  0  0  0  0  0  0
  -14.8916  -23.5664  -37.6761 H   0  0  0  0  0  0  0  0  0  0  0  0
  -15.2836  -23.6541  -39.3937 H   0  0  0  0  0  0  0  0  0  0  0  0
  -15.0672  -25.1462  -38.4611 H   0  0  0  0  0  0  0  0  0  0  0  0
  -17.5157  -25.8910  -36.9299 H   0  0  0  0  0  0  0  0  0  0  0  0
  -16.3045  -24.8673  -36.1381 H   0  0  0  0  0  0  0  0  0  0  0  0
  -18.0049  -24.3677  -36.1873 H   0  0  0  0  0  0  0  0  0  0  0  0
  1 10  2  0  0  0  0
  1 11  2  0  0  0  0
  2  8  1  0  0  0  0
  3  8  1  0  0  0  0
  4  8  1  0  0  0  0
  5  9  1  0  0  0  0
  6  9  1  0  0  0  0
  7  9  1  0  0  0  0
  8 10  1  0  0  0  0
  9 11  1  0  0  0  0
  2 12  1  0  0  0  0
  2 13  1  0  0  0  0
  2 14  1  0  0  0  0
  3 15  1  0  0  0  0
  3 16  1  0  0  0  0
  3 17  1  0  0  0  0
  4 18  1  0  0  0  0
  4 19  1  0  0  0  0
  4 20  1  0  0  0  0
  5 21  1  0  0  0  0
  5 22  1  0  0  0  0
  5 23  1  0  0  0  0
  6 24  1  0  0  0  0
  6 25  1  0  0  0  0
  6 26  1  0  0  0  0
  7 27  1  0  0  0  0
  7 28  1  0  0  0  0
  7 29  1  0  0  0  0
M  END
> <Name>
IA_157.cdx

> <SourceTag>
IA_157

> <Gold.Version>
5.2

> <Gold.Id.Protein>
6HGV|6HGV_protein|mol2

> <Gold.Goldscore.Fitness>
31.7494

> <Gold.Goldscore.Internal.Vdw>
-119.5196

> <Gold.Goldscore.Internal.Torsion>
-10.2838

> <Gold.Goldscore.External.Vdw>
24.0691

> <Gold.Goldscore.Internal.HBond>
0.0000

> <Gold.Goldscore.External.HBond>
0.0000

> <Gold.Goldscore.Internal.Correction>
-128.4577

> <Gold.Goldscore.Internal.Vdw.Weighted>
-119.5196

> <Gold.Goldscore.Internal.Torsion.Weighted>
-10.2838

> <Gold.Goldscore.External.Vdw.Weighted>
33.0950

> <Gold.Goldscore.Internal.HBond.Weighted>
0.0000

> <Gold.Goldscore.External.HBond.Weighted>
0.0000

> <Gold.Goldscore.Internal.Correction.Weighted>
-128.4577

> <Gold.Protein.RotatedTorsions>
[ 3781 1176 1175 1172 ] final  -82.86 input   60.00 | X-H torsion
[ 3847 1247 1246 1244 ] final  -97.91 input   60.00 | X-H torsion
[ 4507 1931 1930 1928 ] final  102.50 input   60.00 | X-H torsion
[ 3677 1070 1069 1066 ] final  134.52 input   60.00 | X-H torsion
[ 3525  925  924  922 ] final  146.54 input   59.99 | X-H torsion
[ 4531 1957 1955 1953 ] final -158.22 input   60.00 | X-H torsion

> <Gold.Protein.ActiveResidues>
 PHE267  PRO268  MET310  ASP335  TRP336  MET339  TYR343  THR360  PRO361  ILE363 
 PRO371  SER374  ILE375  ASN378  PHE381  TYR383  GLN384  PHE387  LEU408  LEU417 
 MET419  LEU428  TYR466  MET469  ASN472  ASP496  VAL498  LEU499  MET503  HIS524 
 TRP525 

> <Gold.Protein.RotatedAtoms>
   -2.0569  -30.2691  -29.9101 H   0  0  0  0  0  0  0  0  0  0  0  0  # atno 3525 bound_to 925 
  -11.3972  -22.2717  -30.7387 H   0  0  0  0  0  0  0  0  0  0  0  0  # atno 3677 bound_to 1070
   -9.9178  -36.4850  -34.1063 H   0  0  0  0  0  0  0  0  0  0  0  0  # atno 3781 bound_to 1176
  -15.8192  -27.3878  -37.5208 H   0  0  0  0  0  0  0  0  0  0  0  0  # atno 3847 bound_to 1247
  -12.4341  -24.1063  -39.1301 H   0  0  0  0  0  0  0  0  0  0  0  0  # atno 4507 bound_to 1931
   -1.3189  -33.4602  -36.9980 H   0  0  0  0  0  0  0  0  0  0  0  0  # atno 4531 bound_to 1957
   -9.4122  -36.7175  -32.5771 LP  0  0  0  0  0  0  0  0  0  0  0  0  # atno 5205 bound_to 1176
  -10.7816  -37.4334  -33.1050 LP  0  0  0  0  0  0  0  0  0  0  0  0  # atno 5206 bound_to 1176
  -14.3363  -27.9500  -37.8851 LP  0  0  0  0  0  0  0  0  0  0  0  0  # atno 5215 bound_to 1247
  -15.4044  -28.9042  -37.1008 LP  0  0  0  0  0  0  0  0  0  0  0  0  # atno 5216 bound_to 1247
  -13.4334  -25.3791  -39.3022 LP  0  0  0  0  0  0  0  0  0  0  0  0  # atno 5217 bound_to 1931
  -13.3318  -24.2521  -40.4795 LP  0  0  0  0  0  0  0  0  0  0  0  0  # atno 5218 bound_to 1931
  -12.8055  -23.0489  -30.4919 LP  0  0  0  0  0  0  0  0  0  0  0  0  # atno 5224 bound_to 1070
  -11.6553  -23.7181  -31.4385 LP  0  0  0  0  0  0  0  0  0  0  0  0  # atno 5225 bound_to 1070

$$$$
IA_49.cdx|SeH_inactivess_minimized|sdf|134|dock8
  -GOLD-   4172121503D 1   1.00000     0.00000

 26 27  0  0  0  0  0  0  0  0  1 V2000
   -9.3237  -26.6571  -34.6006 C   0  0  0  0  0  0  0  0  0  0  0  0
  -18.4363  -25.4573  -36.3807 C   0  0  0  0  0  0  0  0  0  0  0  0
   -9.8971  -25.4948  -34.0847 C   0  0  0  0  0  0  0  0  0  0  0  0
   -9.7472  -27.1563  -35.8323 C   0  0  0  0  0  0  0  0  0  0  0  0
  -17.4865  -25.3361  -35.3664 C   0  0  0  0  0  0  0  0  0  0  0  0
  -18.0653  -25.2601  -37.7109 C   0  0  0  0  0  0  0  0  0  0  0  0
  -10.8941  -24.8320  -34.8003 C   0  0  0  0  0  0  0  0  0  0  0  0
  -10.7443  -26.4934  -36.5480 C   0  0  0  0  0  0  0  0  0  0  0  0
  -16.1657  -25.0175  -35.6822 C   0  0  0  0  0  0  0  0  0  0  0  0
  -16.7445  -24.9416  -38.0266 C   0  0  0  0  0  0  0  0  0  0  0  0
  -11.3178  -25.3312  -36.0320 C   0  0  0  0  0  0  0  0  0  0  0  0
  -15.7947  -24.8203  -37.0123 C   0  0  0  0  0  0  0  0  0  0  0  0
  -13.5477  -25.3097  -36.6828 C   0  0  0  0  0  0  0  0  0  0  0  0
  -13.7748  -26.3920  -36.1552 O   0  0  0  0  0  0  0  0  0  0  0  0
  -12.2917  -24.6858  -36.7300 O   0  0  0  0  0  0  0  0  0  0  0  0
  -14.4722  -24.4996  -37.3290 O   0  0  0  0  0  0  0  0  0  0  0  0
   -8.5470  -27.1730  -34.0439 H   0  0  0  0  0  0  0  0  0  0  0  0
  -19.4646  -25.7059  -36.1353 H   0  0  0  0  0  0  0  0  0  0  0  0
   -9.5675  -25.1060  -33.1255 H   0  0  0  0  0  0  0  0  0  0  0  0
   -9.3002  -28.0612  -36.2335 H   0  0  0  0  0  0  0  0  0  0  0  0
  -17.7752  -25.4894  -34.3306 H   0  0  0  0  0  0  0  0  0  0  0  0
  -18.8055  -25.3549  -38.5002 H   0  0  0  0  0  0  0  0  0  0  0  0
  -11.3378  -23.9279  -34.3922 H   0  0  0  0  0  0  0  0  0  0  0  0
  -11.0716  -26.8880  -37.5061 H   0  0  0  0  0  0  0  0  0  0  0  0
  -15.4309  -24.9231  -34.8872 H   0  0  0  0  0  0  0  0  0  0  0  0
  -16.4616  -24.7873  -39.0644 H   0  0  0  0  0  0  0  0  0  0  0  0
  1  3  2  0  0  0  0
  1  4  1  0  0  0  0
  2  5  2  0  0  0  0
  2  6  1  0  0  0  0
  3  7  1  0  0  0  0
  4  8  2  0  0  0  0
  5  9  1  0  0  0  0
  6 10  2  0  0  0  0
  7 11  2  0  0  0  0
  8 11  1  0  0  0  0
  9 12  2  0  0  0  0
 10 12  1  0  0  0  0
 11 15  1  0  0  0  0
 12 16  1  0  0  0  0
 13 14  2  0  0  0  0
 13 15  1  0  0  0  0
 13 16  1  0  0  0  0
  1 17  1  0  0  0  0
  2 18  1  0  0  0  0
  3 19  1  0  0  0  0
  4 20  1  0  0  0  0
  5 21  1  0  0  0  0
  6 22  1  0  0  0  0
  7 23  1  0  0  0  0
  8 24  1  0  0  0  0
  9 25  1  0  0  0  0
 10 26  1  0  0  0  0
M  END
> <Name>
IA_49.cdx

> <SourceTag>
IA_49

> <Gold.Version>
5.2

> <Gold.Id.Protein>
6HGV|6HGV_protein|mol2

> <Gold.Goldscore.Fitness>
51.3048

> <Gold.Goldscore.Internal.Vdw>
0.1852

> <Gold.Goldscore.Internal.Torsion>
-4.6747

> <Gold.Goldscore.External.Vdw>
36.9361

> <Gold.Goldscore.Internal.HBond>
0.0000

> <Gold.Goldscore.External.HBond>
1.8531

> <Gold.Goldscore.Internal.Correction>
-3.1542

> <Gold.Goldscore.Hbonds>
donor molecule, donor type, donor heavy atom, donor atom, acceptor molecule, acceptor atom, score
      P1  H  1931  4507       L1    15  0.93

> <Gold.Goldscore.Internal.Vdw.Weighted>
0.1852

> <Gold.Goldscore.Internal.Torsion.Weighted>
-4.6747

> <Gold.Goldscore.External.Vdw.Weighted>
50.7871

> <Gold.Goldscore.Internal.HBond.Weighted>
0.0000

> <Gold.Goldscore.External.HBond.Weighted>
1.8531

> <Gold.Goldscore.Internal.Correction.Weighted>
-3.1542

> <Gold.Protein.RotatedTorsions>
[ 3781 1176 1175 1172 ] final  106.31 input   60.00 | X-H torsion
[ 3847 1247 1246 1244 ] final  -78.19 input   60.00 | X-H torsion
[ 4507 1931 1930 1928 ] final   51.21 input   60.00 | X-H torsion
[ 3677 1070 1069 1066 ] final -109.03 input   60.00 | X-H torsion
[ 3525  925  924  922 ] final  102.14 input   59.99 | X-H torsion
[ 4531 1957 1955 1953 ] final  -93.94 input   60.00 | X-H torsion

> <Gold.Protein.ActiveResidues>
 PHE267  PRO268  MET310  ASP335  TRP336  MET339  TYR343  THR360  PRO361  ILE363 
 PRO371  SER374  ILE375  ASN378  PHE381  TYR383  GLN384  PHE387  LEU408  LEU417 
 MET419  LEU428  TYR466  MET469  ASN472  ASP496  VAL498  LEU499  MET503  HIS524 
 TRP525 

> <Gold.Protein.RotatedAtoms>
   -2.2616  -30.1194  -30.5706 H   0  0  0  0  0  0  0  0  0  0  0  0  # atno 3525 bound_to 925 
  -11.6069  -23.6850  -31.4405 H   0  0  0  0  0  0  0  0  0  0  0  0  # atno 3677 bound_to 1070
  -10.0277  -37.2024  -32.3867 H   0  0  0  0  0  0  0  0  0  0  0  0  # atno 3781 bound_to 1176
  -15.9889  -27.6130  -37.3681 H   0  0  0  0  0  0  0  0  0  0  0  0  # atno 3847 bound_to 1247
  -12.7155  -24.7875  -38.7932 H   0  0  0  0  0  0  0  0  0  0  0  0  # atno 4507 bound_to 1931
   -1.5122  -32.4843  -36.9444 H   0  0  0  0  0  0  0  0  0  0  0  0  # atno 4531 bound_to 1957
  -10.7340  -37.1223  -33.8506 LP  0  0  0  0  0  0  0  0  0  0  0  0  # atno 5205 bound_to 1176
   -9.3491  -36.3060  -33.5632 LP  0  0  0  0  0  0  0  0  0  0  0  0  # atno 5206 bound_to 1176
  -14.4678  -27.6610  -37.9440 LP  0  0  0  0  0  0  0  0  0  0  0  0  # atno 5215 bound_to 1247
  -15.1021  -28.9664  -37.1957 LP  0  0  0  0  0  0  0  0  0  0  0  0  # atno 5216 bound_to 1247
  -13.7012  -25.1465  -40.0372 LP  0  0  0  0  0  0  0  0  0  0  0  0  # atno 5217 bound_to 1931
  -12.7806  -23.7986  -40.0838 LP  0  0  0  0  0  0  0  0  0  0  0  0  # atno 5218 bound_to 1931
  -11.4365  -22.2430  -30.7060 LP  0  0  0  0  0  0  0  0  0  0  0  0  # atno 5224 bound_to 1070
  -12.8132  -23.1008  -30.5177 LP  0  0  0  0  0  0  0  0  0  0  0  0  # atno 5225 bound_to 1070

$$$$
IA_206.cdx|SeH_inactivess_minimized|sdf|103|dock7
  -GOLD-   4172120503D 1   1.00000     0.00000

 30 30  0  0  0  0  0  0  0  0  1 V2000
  -12.9027  -24.6667  -36.9337 C   0  0  0  0  0  0  0  0  0  0  0  0
  -14.2541  -26.2510  -35.7086 C   0  0  0  0  0  0  0  0  0  0  0  0
  -14.0490  -24.1654  -37.5501 C   0  0  0  0  0  0  0  0  0  0  0  0
  -15.4006  -25.7496  -36.3250 C   0  0  0  0  0  0  0  0  0  0  0  0
  -13.0051  -25.7095  -36.0130 C   0  0  0  0  0  0  0  0  0  0  0  0
  -15.2981  -24.7068  -37.2458 C   0  0  0  0  0  0  0  0  0  0  0  0
  -17.7648  -24.1771  -37.3680 C   0  0  0  0  0  0  0  0  0  0  0  0
  -10.9955  -25.1581  -34.5949 C   0  0  0  0  0  0  0  0  0  0  0  0
  -10.8458  -26.9672  -36.3441 C   0  0  0  0  0  0  0  0  0  0  0  0
  -20.0472  -23.4248  -38.0560 C   0  0  0  0  0  0  0  0  0  0  0  0
  -11.7793  -26.2455  -35.3539 C   0  0  0  0  0  0  0  0  0  0  0  0
  -16.4449  -24.2055  -37.8620 N   0  0  0  0  0  0  0  0  0  0  0  0
  -18.6316  -23.5881  -38.2941 N   0  0  0  0  0  0  0  0  0  0  0  0
  -18.1365  -24.6029  -36.2770 O   0  0  0  0  0  0  0  0  0  0  0  0
  -11.9333  -24.2403  -37.1784 H   0  0  0  0  0  0  0  0  0  0  0  0
  -14.3431  -27.0641  -34.9930 H   0  0  0  0  0  0  0  0  0  0  0  0
  -13.9574  -23.3523  -38.2658 H   0  0  0  0  0  0  0  0  0  0  0  0
  -16.3688  -26.1797  -36.0813 H   0  0  0  0  0  0  0  0  0  0  0  0
  -10.5796  -24.4097  -35.2783 H   0  0  0  0  0  0  0  0  0  0  0  0
  -10.1635  -25.5872  -34.0260 H   0  0  0  0  0  0  0  0  0  0  0  0
  -11.6512  -24.6370  -33.8883 H   0  0  0  0  0  0  0  0  0  0  0  0
   -9.9971  -27.4134  -35.8137 H   0  0  0  0  0  0  0  0  0  0  0  0
  -10.4461  -26.2761  -37.0942 H   0  0  0  0  0  0  0  0  0  0  0  0
  -11.3665  -27.7706  -36.8767 H   0  0  0  0  0  0  0  0  0  0  0  0
  -20.4842  -24.3706  -37.7252 H   0  0  0  0  0  0  0  0  0  0  0  0
  -20.5505  -23.1063  -38.9730 H   0  0  0  0  0  0  0  0  0  0  0  0
  -20.2159  -22.6698  -37.2834 H   0  0  0  0  0  0  0  0  0  0  0  0
  -12.0608  -27.0016  -34.5963 H   0  0  0  0  0  0  0  0  0  0  0  0
  -16.3265  -23.8010  -38.7968 H   0  0  0  0  0  0  0  0  0  0  0  0
  -18.2482  -23.2601  -39.1750 H   0  0  0  0  0  0  0  0  0  0  0  0
  1  3  1  0  0  0  0
  1  5  2  0  0  0  0
  2  4  2  0  0  0  0
  2  5  1  0  0  0  0
  3  6  2  0  0  0  0
  4  6  1  0  0  0  0
  5 11  1  0  0  0  0
  6 12  1  0  0  0  0
  7 12  1  0  0  0  0
  7 13  1  0  0  0  0
  7 14  2  0  0  0  0
  8 11  1  0  0  0  0
  9 11  1  0  0  0  0
 10 13  1  0  0  0  0
  1 15  1  0  0  0  0
  2 16  1  0  0  0  0
  3 17  1  0  0  0  0
  4 18  1  0  0  0  0
  8 19  1  0  0  0  0
  8 20  1  0  0  0  0
  8 21  1  0  0  0  0
  9 22  1  0  0  0  0
  9 23  1  0  0  0  0
  9 24  1  0  0  0  0
 10 25  1  0  0  0  0
 10 26  1  0  0  0  0
 10 27  1  0  0  0  0
 11 28  1  0  0  0  0
 12 29  1  0  0  0  0
 13 30  1  0  0  0  0
M  END
> <Name>
IA_206.cdx

> <SourceTag>
IA_206

> <Gold.Version>
5.2

> <Gold.Id.Protein>
6HGV|6HGV_protein|mol2

> <Gold.Goldscore.Fitness>
47.0300

> <Gold.Goldscore.Internal.Vdw>
-1.6261

> <Gold.Goldscore.Internal.Torsion>
-2.4889

> <Gold.Goldscore.External.Vdw>
34.2995

> <Gold.Goldscore.Internal.HBond>
0.0000

> <Gold.Goldscore.External.HBond>
0.0000

> <Gold.Goldscore.Internal.Correction>
-3.9832

> <Gold.Goldscore.Internal.Vdw.Weighted>
-1.6261

> <Gold.Goldscore.Internal.Torsion.Weighted>
-2.4889

> <Gold.Goldscore.External.Vdw.Weighted>
47.1619

> <Gold.Goldscore.Internal.HBond.Weighted>
0.0000

> <Gold.Goldscore.External.HBond.Weighted>
0.0000

> <Gold.Goldscore.Internal.Correction.Weighted>
-3.9832

> <Gold.Protein.RotatedTorsions>
[ 3781 1176 1175 1172 ] final   74.38 input   60.00 | X-H torsion
[ 3847 1247 1246 1244 ] final  141.48 input   60.00 | X-H torsion
[ 4507 1931 1930 1928 ] final  -96.57 input   60.00 | X-H torsion
[ 3677 1070 1069 1066 ] final -105.26 input   60.00 | X-H torsion
[ 3525  925  924  922 ] final   47.65 input   59.99 | X-H torsion
[ 4531 1957 1955 1953 ] final  114.76 input   60.00 | X-H torsion

> <Gold.Protein.ActiveResidues>
 PHE267  PRO268  MET310  ASP335  TRP336  MET339  TYR343  THR360  PRO361  ILE363 
 PRO371  SER374  ILE375  ASN378  PHE381  TYR383  GLN384  PHE387  LEU408  LEU417 
 MET419  LEU428  TYR466  MET469  ASN472  ASP496  VAL498  LEU499  MET503  HIS524 
 TRP525 

> <Gold.Protein.RotatedAtoms>
   -2.9898  -29.7751  -30.8638 H   0  0  0  0  0  0  0  0  0  0  0  0  # atno 3525 bound_to 925 
  -11.6595  -23.7159  -31.4322 H   0  0  0  0  0  0  0  0  0  0  0  0  # atno 3677 bound_to 1070
  -10.4489  -37.4010  -32.6069 H   0  0  0  0  0  0  0  0  0  0  0  0  # atno 3781 bound_to 1176
  -14.3406  -27.9610  -37.8819 H   0  0  0  0  0  0  0  0  0  0  0  0  # atno 3847 bound_to 1247
  -13.6399  -24.8144  -40.3361 H   0  0  0  0  0  0  0  0  0  0  0  0  # atno 4507 bound_to 1931
   -2.4599  -34.0237  -36.7908 H   0  0  0  0  0  0  0  0  0  0  0  0  # atno 4531 bound_to 1957
  -10.4209  -36.8113  -34.1233 LP  0  0  0  0  0  0  0  0  0  0  0  0  # atno 5205 bound_to 1176
   -9.2380  -36.4170  -33.0688 LP  0  0  0  0  0  0  0  0  0  0  0  0  # atno 5206 bound_to 1176
  -15.4136  -28.9007  -37.0986 LP  0  0  0  0  0  0  0  0  0  0  0  0  # atno 5215 bound_to 1247
  -15.8163  -27.3763  -37.5237 LP  0  0  0  0  0  0  0  0  0  0  0  0  # atno 5216 bound_to 1247
  -12.5480  -23.7918  -39.6957 LP  0  0  0  0  0  0  0  0  0  0  0  0  # atno 5217 bound_to 1931
  -13.0028  -25.1262  -38.8715 LP  0  0  0  0  0  0  0  0  0  0  0  0  # atno 5218 bound_to 1931
  -11.3917  -22.2669  -30.7416 LP  0  0  0  0  0  0  0  0  0  0  0  0  # atno 5224 bound_to 1070
  -12.8049  -23.0457  -30.4904 LP  0  0  0  0  0  0  0  0  0  0  0  0  # atno 5225 bound_to 1070

$$$$
IA_46|SeH_inactivess_minimized|sdf|131|dock9
  -GOLD-   4172121483D 1   1.00000     0.00000

 63 65  0  0  0  0  0  0  0  0  1 V2000
   -7.2741  -33.9733  -33.9824 C   0  0  0  0  0  0  0  0  0  0  0  0
   -6.4135  -32.9134  -34.2680 C   0  0  0  0  0  0  0  0  0  0  0  0
   -8.6550  -33.7866  -34.0440 C   0  0  0  0  0  0  0  0  0  0  0  0
  -14.2060  -24.0023  -37.7289 C   0  0  0  0  0  0  0  0  0  0  0  0
  -15.8044  -25.6353  -36.9441 C   0  0  0  0  0  0  0  0  0  0  0  0
  -15.2344  -23.0744  -37.8928 C   0  0  0  0  0  0  0  0  0  0  0  0
  -16.8328  -24.7073  -37.1080 C   0  0  0  0  0  0  0  0  0  0  0  0
   -6.9339  -31.6667  -34.6153 C   0  0  0  0  0  0  0  0  0  0  0  0
   -9.1754  -32.5399  -34.3912 C   0  0  0  0  0  0  0  0  0  0  0  0
   -8.3149  -31.4799  -34.6769 C   0  0  0  0  0  0  0  0  0  0  0  0
  -14.4910  -25.2828  -37.2547 C   0  0  0  0  0  0  0  0  0  0  0  0
  -16.5478  -23.4268  -37.5823 C   0  0  0  0  0  0  0  0  0  0  0  0
   -9.3505  -29.2309  -34.1764 C   0  0  0  0  0  0  0  0  0  0  0  0
  -10.2414  -25.7325  -35.2421 C   0  0  0  0  0  0  0  0  0  0  0  0
  -11.7952  -27.2002  -33.8768 C   0  0  0  0  0  0  0  0  0  0  0  0
  -11.2164  -25.8017  -36.4160 C   0  0  0  0  0  0  0  0  0  0  0  0
  -12.7567  -27.2723  -35.0610 C   0  0  0  0  0  0  0  0  0  0  0  0
  -10.3483  -26.9441  -34.3097 C   0  0  1  0  0  0  0  0  0  0  0  0
  -12.6509  -26.0339  -35.9487 C   0  0  2  0  0  0  0  0  0  0  0  0
   -4.7654  -31.0209  -35.7261 C   0  0  0  0  0  0  0  0  0  0  0  0
   -5.5222  -29.8179  -33.6440 C   0  0  0  0  0  0  0  0  0  0  0  0
  -11.3346  -32.6606  -33.0961 C   0  0  0  0  0  0  0  0  0  0  0  0
  -11.3039  -33.2305  -35.5517 C   0  0  0  0  0  0  0  0  0  0  0  0
   -5.9865  -30.5504  -34.9156 C   0  0  0  0  0  0  0  0  0  0  0  0
  -10.6593  -32.3716  -34.4489 C   0  0  0  0  0  0  0  0  0  0  0  0
   -8.8427  -30.2156  -35.0285 N   0  0  0  0  0  0  0  0  0  0  0  0
   -9.7754  -28.1242  -34.9165 N   0  0  0  0  0  0  0  0  0  0  0  0
   -9.4285  -29.2912  -32.9517 O   0  0  0  0  0  0  0  0  0  0  0  0
  -13.4811  -26.1939  -37.0939 O   0  0  0  0  0  0  0  0  0  0  0  0
  -17.5355  -22.5357  -37.7396 F   0  0  0  0  0  0  0  0  0  0  0  0
   -6.8690  -34.9443  -33.7123 H   0  0  0  0  0  0  0  0  0  0  0  0
   -5.3391  -33.0689  -34.2168 H   0  0  0  0  0  0  0  0  0  0  0  0
   -9.3167  -34.6192  -33.8202 H   0  0  0  0  0  0  0  0  0  0  0  0
  -13.1850  -23.7217  -37.9726 H   0  0  0  0  0  0  0  0  0  0  0  0
  -16.0328  -26.6311  -36.5743 H   0  0  0  0  0  0  0  0  0  0  0  0
  -15.0130  -22.0774  -38.2620 H   0  0  0  0  0  0  0  0  0  0  0  0
  -17.8555  -24.9814  -36.8663 H   0  0  0  0  0  0  0  0  0  0  0  0
   -9.2183  -25.6292  -35.6233 H   0  0  0  0  0  0  0  0  0  0  0  0
  -10.4556  -24.8242  -34.6641 H   0  0  0  0  0  0  0  0  0  0  0  0
  -12.1155  -26.3866  -33.2135 H   0  0  0  0  0  0  0  0  0  0  0  0
  -11.8639  -28.1277  -33.2957 H   0  0  0  0  0  0  0  0  0  0  0  0
  -11.1639  -24.8754  -37.0011 H   0  0  0  0  0  0  0  0  0  0  0  0
  -10.9171  -26.6010  -37.1062 H   0  0  0  0  0  0  0  0  0  0  0  0
  -12.5585  -28.1731  -35.6560 H   0  0  0  0  0  0  0  0  0  0  0  0
  -13.7863  -27.3807  -34.6988 H   0  0  0  0  0  0  0  0  0  0  0  0
   -9.7405  -26.7558  -33.4134 H   0  0  0  0  0  0  0  0  0  0  0  0
  -13.0036  -25.1516  -35.4018 H   0  0  0  0  0  0  0  0  0  0  0  0
   -4.3225  -30.2011  -36.3020 H   0  0  0  0  0  0  0  0  0  0  0  0
   -5.0365  -31.8139  -36.4316 H   0  0  0  0  0  0  0  0  0  0  0  0
   -3.9914  -31.4162  -35.0587 H   0  0  0  0  0  0  0  0  0  0  0  0
   -6.3823  -29.4144  -33.0981 H   0  0  0  0  0  0  0  0  0  0  0  0
   -4.8567  -28.9822  -33.8860 H   0  0  0  0  0  0  0  0  0  0  0  0
   -4.9812  -30.4878  -32.9667 H   0  0  0  0  0  0  0  0  0  0  0  0
  -11.2830  -33.7240  -32.8379 H   0  0  0  0  0  0  0  0  0  0  0  0
  -12.3913  -32.3726  -33.1084 H   0  0  0  0  0  0  0  0  0  0  0  0
  -10.8431  -32.0982  -32.2944 H   0  0  0  0  0  0  0  0  0  0  0  0
  -11.2358  -34.2943  -35.2981 H   0  0  0  0  0  0  0  0  0  0  0  0
  -10.8042  -33.0829  -36.5152 H   0  0  0  0  0  0  0  0  0  0  0  0
  -12.3634  -32.9864  -35.6863 H   0  0  0  0  0  0  0  0  0  0  0  0
   -6.4928  -29.7903  -35.5387 H   0  0  0  0  0  0  0  0  0  0  0  0
  -10.9055  -31.3223  -34.6956 H   0  0  0  0  0  0  0  0  0  0  0  0
   -8.8511  -30.0017  -36.0226 H   0  0  0  0  0  0  0  0  0  0  0  0
   -9.6773  -28.1503  -35.9256 H   0  0  0  0  0  0  0  0  0  0  0  0
  1  2  2  0  0  0  0
  1  3  1  0  0  0  0
  2  8  1  0  0  0  0
  3  9  2  0  0  0  0
  4  6  1  0  0  0  0
  4 11  2  0  0  0  0
  5  7  2  0  0  0  0
  5 11  1  0  0  0  0
  6 12  2  0  0  0  0
  7 12  1  0  0  0  0
  8 10  2  0  0  0  0
  8 24  1  0  0  0  0
  9 10  1  0  0  0  0
  9 25  1  0  0  0  0
 10 26  1  0  0  0  0
 11 29  1  0  0  0  0
 12 30  1  0  0  0  0
 13 26  1  0  0  0  0
 13 27  1  0  0  0  0
 13 28  2  0  0  0  0
 14 16  1  0  0  0  0
 14 18  1  0  0  0  0
 15 17  1  0  0  0  0
 15 18  1  0  0  0  0
 16 19  1  0  0  0  0
 17 19  1  0  0  0  0
 18 27  1  0  0  0  0
 19 29  1  0  0  0  0
 20 24  1  0  0  0  0
 21 24  1  0  0  0  0
 22 25  1  0  0  0  0
 23 25  1  0  0  0  0
  1 31  1  0  0  0  0
  2 32  1  0  0  0  0
  3 33  1  0  0  0  0
  4 34  1  0  0  0  0
  5 35  1  0  0  0  0
  6 36  1  0  0  0  0
  7 37  1  0  0  0  0
 14 38  1  0  0  0  0
 14 39  1  0  0  0  0
 15 40  1  0  0  0  0
 15 41  1  0  0  0  0
 16 42  1  0  0  0  0
 16 43  1  0  0  0  0
 17 44  1  0  0  0  0
 17 45  1  0  0  0  0
 18 46  1  0  0  0  0
 19 47  1  0  0  0  0
 20 48  1  0  0  0  0
 20 49  1  0  0  0  0
 20 50  1  0  0  0  0
 21 51  1  0  0  0  0
 21 52  1  0  0  0  0
 21 53  1  0  0  0  0
 22 54  1  0  0  0  0
 22 55  1  0  0  0  0
 22 56  1  0  0  0  0
 23 57  1  0  0  0  0
 23 58  1  0  0  0  0
 23 59  1  0  0  0  0
 24 60  1  0  0  0  0
 25 61  1  0  0  0  0
 26 62  1  0  0  0  0
 27 63  1  0  0  0  0
M  END
> <Name>
IA_46

> <SourceTag>
IA_46

> <Gold.Version>
5.2

> <Gold.Id.Protein>
6HGV|6HGV_protein|mol2

> <Gold.Goldscore.Fitness>
64.8962

> <Gold.Goldscore.Internal.Vdw>
-0.5197

> <Gold.Goldscore.Internal.Torsion>
-14.5567

> <Gold.Goldscore.External.Vdw>
50.6395

> <Gold.Goldscore.Internal.HBond>
0.0000

> <Gold.Goldscore.External.HBond>
0.0000

> <Gold.Goldscore.Internal.Correction>
-10.3433

> <Gold.Goldscore.Internal.Vdw.Weighted>
-0.5197

> <Gold.Goldscore.Internal.Torsion.Weighted>
-14.5567

> <Gold.Goldscore.External.Vdw.Weighted>
69.6293

> <Gold.Goldscore.Internal.HBond.Weighted>
0.0000

> <Gold.Goldscore.External.HBond.Weighted>
0.0000

> <Gold.Goldscore.Internal.Correction.Weighted>
-10.3433

> <Gold.Protein.RotatedTorsions>
[ 3781 1176 1175 1172 ] final  -45.40 input   60.00 | X-H torsion
[ 3847 1247 1246 1244 ] final   85.82 input   60.00 | X-H torsion
[ 4507 1931 1930 1928 ] final  -85.06 input   60.00 | X-H torsion
[ 3677 1070 1069 1066 ] final  -93.36 input   60.00 | X-H torsion
[ 3525  925  924  922 ] final   18.89 input   59.99 | X-H torsion
[ 4531 1957 1955 1953 ] final   65.24 input   60.00 | X-H torsion

> <Gold.Protein.ActiveResidues>
 PHE267  PRO268  MET310  ASP335  TRP336  MET339  TYR343  THR360  PRO361  ILE363 
 PRO371  SER374  ILE375  ASN378  PHE381  TYR383  GLN384  PHE387  LEU408  LEU417 
 MET419  LEU428  TYR466  MET469  ASN472  ASP496  VAL498  LEU499  MET503  HIS524 
 TRP525 

> <Gold.Protein.RotatedAtoms>
   -3.3920  -29.6154  -30.6936 H   0  0  0  0  0  0  0  0  0  0  0  0  # atno 3525 bound_to 925 
  -11.8328  -23.7928  -31.3908 H   0  0  0  0  0  0  0  0  0  0  0  0  # atno 3677 bound_to 1070
  -10.4197  -36.8159  -34.1169 H   0  0  0  0  0  0  0  0  0  0  0  0  # atno 3781 bound_to 1176
  -14.5196  -28.7343  -37.5158 H   0  0  0  0  0  0  0  0  0  0  0  0  # atno 3847 bound_to 1247
  -13.6803  -24.9623  -40.2278 H   0  0  0  0  0  0  0  0  0  0  0  0  # atno 4507 bound_to 1931
   -3.0276  -33.4955  -36.6738 H   0  0  0  0  0  0  0  0  0  0  0  0  # atno 4531 bound_to 1957
   -9.2379  -36.4157  -33.0722 LP  0  0  0  0  0  0  0  0  0  0  0  0  # atno 5205 bound_to 1176
  -10.4505  -37.4019  -32.5992 LP  0  0  0  0  0  0  0  0  0  0  0  0  # atno 5206 bound_to 1176
  -16.0219  -28.2644  -37.1032 LP  0  0  0  0  0  0  0  0  0  0  0  0  # atno 5215 bound_to 1247
  -15.0276  -27.2338  -37.8878 LP  0  0  0  0  0  0  0  0  0  0  0  0  # atno 5216 bound_to 1247
  -12.6325  -23.7717  -39.8635 LP  0  0  0  0  0  0  0  0  0  0  0  0  # atno 5217 bound_to 1931
  -12.8777  -24.9974  -38.8127 LP  0  0  0  0  0  0  0  0  0  0  0  0  # atno 5218 bound_to 1931
  -11.2673  -22.3631  -30.8576 LP  0  0  0  0  0  0  0  0  0  0  0  0  # atno 5224 bound_to 1070
  -12.7548  -22.8720  -30.4161 LP  0  0  0  0  0  0  0  0  0  0  0  0  # atno 5225 bound_to 1070

$$$$
IA_40|SeH_inactivess_minimized|sdf|127|dock8
  -GOLD-   4172121353D 1   1.00000     0.00000

 71 74  0  0  0  0  0  0  0  0  1 V2000
  -19.3187  -24.9781  -36.5465 C   0  0  0  0  0  0  0  0  0  0  0  0
  -19.0132  -23.4152  -38.3635 C   0  0  0  0  0  0  0  0  0  0  0  0
  -20.7011  -24.9073  -36.7179 C   0  0  0  0  0  0  0  0  0  0  0  0
  -20.3957  -23.3443  -38.5350 C   0  0  0  0  0  0  0  0  0  0  0  0
  -18.4747  -24.2322  -37.3694 C   0  0  0  0  0  0  0  0  0  0  0  0
  -21.2397  -24.0904  -37.7122 C   0  0  0  0  0  0  0  0  0  0  0  0
  -13.9970  -24.7513  -37.4943 C   0  0  0  0  0  0  0  0  0  0  0  0
  -16.3314  -25.0844  -39.4739 C   0  0  0  0  0  0  0  0  0  0  0  0
   -7.6520  -29.0530  -34.2566 C   0  0  0  0  0  0  0  0  0  0  0  0
   -3.4530  -31.2355  -33.4942 C   0  0  0  0  0  0  0  0  0  0  0  0
   -4.4442  -33.2499  -34.6119 C   0  0  0  0  0  0  0  0  0  0  0  0
   -4.7218  -32.9235  -32.1410 C   0  0  0  0  0  0  0  0  0  0  0  0
   -5.4236  -30.9785  -35.0235 C   0  0  0  0  0  0  0  0  0  0  0  0
   -5.7013  -30.6518  -32.5499 C   0  0  0  0  0  0  0  0  0  0  0  0
   -6.6942  -32.6695  -33.6688 C   0  0  0  0  0  0  0  0  0  0  0  0
   -4.1186  -31.7559  -34.7793 C   0  0  0  0  0  0  0  0  0  0  0  0
   -4.3975  -31.4278  -32.2957 C   0  0  0  0  0  0  0  0  0  0  0  0
   -5.3939  -33.4530  -33.4192 C   0  0  0  0  0  0  0  0  0  0  0  0
   -6.3912  -31.1645  -33.8336 C   0  0  0  0  0  0  0  0  0  0  0  0
  -16.9783  -24.3084  -37.1841 C   0  0  0  0  0  0  0  0  0  0  0  0
  -12.7004  -25.3002  -36.9231 C   0  0  0  0  0  0  0  0  0  0  0  0
  -12.7344  -25.5123  -35.4099 C   0  0  0  0  0  0  0  0  0  0  0  0
  -11.3671  -25.7661  -34.7625 C   0  0  0  0  0  0  0  0  0  0  0  0
  -10.6773  -27.0362  -35.2717 C   0  0  0  0  0  0  0  0  0  0  0  0
   -9.2817  -27.2181  -34.6815 C   0  0  0  0  0  0  0  0  0  0  0  0
  -16.3314  -25.4393  -37.9942 C   0  0  2  0  0  0  0  0  0  0  0  0
  -14.9936  -25.7158  -37.5252 N   0  0  0  0  0  0  0  0  0  0  0  0
   -7.6161  -30.4305  -34.0651 N   0  0  0  0  0  0  0  0  0  0  0  0
   -8.9558  -28.6067  -34.4573 N   0  0  0  0  0  0  0  0  0  0  0  0
  -14.1337  -23.5845  -37.8522 O   0  0  0  0  0  0  0  0  0  0  0  0
  -15.3130  -24.7854  -40.0887 O   0  0  0  0  0  0  0  0  0  0  0  0
   -6.6624  -28.3221  -34.2505 O   0  0  0  0  0  0  0  0  0  0  0  0
  -22.5886  -24.0206  -37.8788 O   0  0  0  0  0  0  0  0  0  0  0  0
  -17.5470  -25.1310  -40.0700 O   0  0  0  0  0  0  0  0  0  0  0  0
  -18.9076  -25.6170  -35.7694 H   0  0  0  0  0  0  0  0  0  0  0  0
  -18.3633  -22.8305  -39.0091 H   0  0  0  0  0  0  0  0  0  0  0  0
  -21.3537  -25.4902  -36.0739 H   0  0  0  0  0  0  0  0  0  0  0  0
  -20.8096  -22.7061  -39.3106 H   0  0  0  0  0  0  0  0  0  0  0  0
   -2.5110  -31.7694  -33.3184 H   0  0  0  0  0  0  0  0  0  0  0  0
   -3.2012  -30.1737  -33.6061 H   0  0  0  0  0  0  0  0  0  0  0  0
   -4.9056  -33.6379  -35.5283 H   0  0  0  0  0  0  0  0  0  0  0  0
   -3.5195  -33.8190  -34.4552 H   0  0  0  0  0  0  0  0  0  0  0  0
   -3.8024  -33.4874  -31.9408 H   0  0  0  0  0  0  0  0  0  0  0  0
   -5.3829  -33.0760  -31.2791 H   0  0  0  0  0  0  0  0  0  0  0  0
   -5.1999  -29.9137  -35.1694 H   0  0  0  0  0  0  0  0  0  0  0  0
   -5.8946  -31.3239  -35.9532 H   0  0  0  0  0  0  0  0  0  0  0  0
   -6.3735  -30.7605  -31.6885 H   0  0  0  0  0  0  0  0  0  0  0  0
   -5.4855  -29.5788  -32.6375 H   0  0  0  0  0  0  0  0  0  0  0  0
   -7.1961  -33.0563  -34.5652 H   0  0  0  0  0  0  0  0  0  0  0  0
   -7.3898  -32.8289  -32.8342 H   0  0  0  0  0  0  0  0  0  0  0  0
   -3.4412  -31.6177  -35.6294 H   0  0  0  0  0  0  0  0  0  0  0  0
   -3.9178  -31.0567  -31.3832 H   0  0  0  0  0  0  0  0  0  0  0  0
   -5.6205  -34.5187  -33.3038 H   0  0  0  0  0  0  0  0  0  0  0  0
  -16.7744  -24.4394  -36.1129 H   0  0  0  0  0  0  0  0  0  0  0  0
  -16.5225  -23.3446  -37.4490 H   0  0  0  0  0  0  0  0  0  0  0  0
  -12.5275  -26.2688  -37.4089 H   0  0  0  0  0  0  0  0  0  0  0  0
  -11.8670  -24.6493  -37.2067 H   0  0  0  0  0  0  0  0  0  0  0  0
  -13.1889  -24.6372  -34.9288 H   0  0  0  0  0  0  0  0  0  0  0  0
  -13.3921  -26.3626  -35.1909 H   0  0  0  0  0  0  0  0  0  0  0  0
  -11.5187  -25.8535  -33.6792 H   0  0  0  0  0  0  0  0  0  0  0  0
  -10.7145  -24.8997  -34.9156 H   0  0  0  0  0  0  0  0  0  0  0  0
  -11.2854  -27.9086  -35.0044 H   0  0  0  0  0  0  0  0  0  0  0  0
  -10.6043  -27.0114  -36.3648 H   0  0  0  0  0  0  0  0  0  0  0  0
   -8.5142  -26.7944  -35.3368 H   0  0  0  0  0  0  0  0  0  0  0  0
   -9.2173  -26.7138  -33.7119 H   0  0  0  0  0  0  0  0  0  0  0  0
  -16.8913  -26.3759  -37.8906 H   0  0  0  0  0  0  0  0  0  0  0  0
  -14.7775  -26.6672  -37.2424 H   0  0  0  0  0  0  0  0  0  0  0  0
   -8.4902  -30.9446  -34.0888 H   0  0  0  0  0  0  0  0  0  0  0  0
   -9.7063  -29.2895  -34.4918 H   0  0  0  0  0  0  0  0  0  0  0  0
  -22.8455  -23.0859  -37.9795 H   0  0  0  0  0  0  0  0  0  0  0  0
  -17.5484  -24.8954  -41.0217 H   0  0  0  0  0  0  0  0  0  0  0  0
  1  3  1  0  0  0  0
  1  5  2  0  0  0  0
  2  4  2  0  0  0  0
  2  5  1  0  0  0  0
  3  6  2  0  0  0  0
  4  6  1  0  0  0  0
  5 20  1  0  0  0  0
  6 33  1  0  0  0  0
  7 21  1  0  0  0  0
  7 27  1  0  0  0  0
  7 30  2  0  0  0  0
  8 26  1  0  0  0  0
  8 31  2  0  0  0  0
  8 34  1  0  0  0  0
  9 28  1  0  0  0  0
  9 29  1  0  0  0  0
  9 32  2  0  0  0  0
 10 16  1  0  0  0  0
 10 17  1  0  0  0  0
 11 16  1  0  0  0  0
 11 18  1  0  0  0  0
 12 17  1  0  0  0  0
 12 18  1  0  0  0  0
 13 16  1  0  0  0  0
 13 19  1  0  0  0  0
 14 17  1  0  0  0  0
 14 19  1  0  0  0  0
 15 18  1  0  0  0  0
 15 19  1  0  0  0  0
 19 28  1  0  0  0  0
 20 26  1  0  0  0  0
 21 22  1  0  0  0  0
 22 23  1  0  0  0  0
 23 24  1  0  0  0  0
 24 25  1  0  0  0  0
 25 29  1  0  0  0  0
 26 27  1  0  0  0  0
  1 35  1  0  0  0  0
  2 36  1  0  0  0  0
  3 37  1  0  0  0  0
  4 38  1  0  0  0  0
 10 39  1  0  0  0  0
 10 40  1  0  0  0  0
 11 41  1  0  0  0  0
 11 42  1  0  0  0  0
 12 43  1  0  0  0  0
 12 44  1  0  0  0  0
 13 45  1  0  0  0  0
 13 46  1  0  0  0  0
 14 47  1  0  0  0  0
 14 48  1  0  0  0  0
 15 49  1  0  0  0  0
 15 50  1  0  0  0  0
 16 51  1  0  0  0  0
 17 52  1  0  0  0  0
 18 53  1  0  0  0  0
 20 54  1  0  0  0  0
 20 55  1  0  0  0  0
 21 56  1  0  0  0  0
 21 57  1  0  0  0  0
 22 58  1  0  0  0  0
 22 59  1  0  0  0  0
 23 60  1  0  0  0  0
 23 61  1  0  0  0  0
 24 62  1  0  0  0  0
 24 63  1  0  0  0  0
 25 64  1  0  0  0  0
 25 65  1  0  0  0  0
 26 66  1  0  0  0  0
 27 67  1  0  0  0  0
 28 68  1  0  0  0  0
 29 69  1  0  0  0  0
 33 70  1  0  0  0  0
 34 71  1  0  0  0  0
M  END
> <Name>
IA_40

> <SourceTag>
IA_40

> <Gold.Version>
5.2

> <Gold.Id.Protein>
6HGV|6HGV_protein|mol2

> <Gold.Goldscore.Fitness>
78.0745

> <Gold.Goldscore.Internal.Vdw>
-4.8802

> <Gold.Goldscore.Internal.Torsion>
-6.9501

> <Gold.Goldscore.External.Vdw>
59.5554

> <Gold.Goldscore.Internal.HBond>
0.0000

> <Gold.Goldscore.External.HBond>
0.9434

> <Gold.Goldscore.Internal.Correction>
-7.0728

> <Gold.Goldscore.Hbonds>
donor molecule, donor type, donor heavy atom, donor atom, acceptor molecule, acceptor atom, score
      P1  H  1931  4507       L1    31  0.33
      L1  H    27    67       P1  1247  0.14

> <Gold.Goldscore.Internal.Vdw.Weighted>
-4.8802

> <Gold.Goldscore.Internal.Torsion.Weighted>
-6.9501

> <Gold.Goldscore.External.Vdw.Weighted>
81.8886

> <Gold.Goldscore.Internal.HBond.Weighted>
0.0000

> <Gold.Goldscore.External.HBond.Weighted>
0.9434

> <Gold.Goldscore.Internal.Correction.Weighted>
-7.0728

> <Gold.Protein.RotatedTorsions>
[ 3781 1176 1175 1172 ] final   74.85 input   60.00 | X-H torsion
[ 3847 1247 1246 1244 ] final   -6.14 input   60.00 | X-H torsion
[ 4507 1931 1930 1928 ] final  -81.36 input   60.00 | X-H torsion
[ 3677 1070 1069 1066 ] final  -29.31 input   60.00 | X-H torsion
[ 3525  925  924  922 ] final -176.32 input   59.99 | X-H torsion
[ 4531 1957 1955 1953 ] final  109.88 input   60.00 | X-H torsion

> <Gold.Protein.ActiveResidues>
 PHE267  PRO268  MET310  ASP335  TRP336  MET339  TYR343  THR360  PRO361  ILE363 
 PRO371  SER374  ILE375  ASN378  PHE381  TYR383  GLN384  PHE387  LEU408  LEU417 
 MET419  LEU428  TYR466  MET469  ASN472  ASP496  VAL498  LEU499  MET503  HIS524 
 TRP525 

> <Gold.Protein.RotatedAtoms>
   -2.2650  -30.2293  -29.3529 H   0  0  0  0  0  0  0  0  0  0  0  0  # atno 3525 bound_to 925 
  -12.6660  -23.6159  -30.8804 H   0  0  0  0  0  0  0  0  0  0  0  0  # atno 3677 bound_to 1070
  -10.4433  -37.3991  -32.6019 H   0  0  0  0  0  0  0  0  0  0  0  0  # atno 3781 bound_to 1176
  -15.7813  -28.6477  -37.0537 H   0  0  0  0  0  0  0  0  0  0  0  0  # atno 3847 bound_to 1247
  -13.6881  -25.0069  -40.1876 H   0  0  0  0  0  0  0  0  0  0  0  0  # atno 4507 bound_to 1931
   -2.5333  -33.9964  -36.7764 H   0  0  0  0  0  0  0  0  0  0  0  0  # atno 4531 bound_to 1957
  -10.4267  -36.8160  -34.1210 LP  0  0  0  0  0  0  0  0  0  0  0  0  # atno 5205 bound_to 1176
   -9.2378  -36.4142  -33.0761 LP  0  0  0  0  0  0  0  0  0  0  0  0  # atno 5206 bound_to 1176
  -15.4556  -27.2044  -37.7310 LP  0  0  0  0  0  0  0  0  0  0  0  0  # atno 5215 bound_to 1247
  -14.3233  -28.3810  -37.7253 LP  0  0  0  0  0  0  0  0  0  0  0  0  # atno 5216 bound_to 1247
  -12.6636  -23.7722  -39.9160 LP  0  0  0  0  0  0  0  0  0  0  0  0  # atno 5217 bound_to 1931
  -12.8387  -24.9520  -38.8007 LP  0  0  0  0  0  0  0  0  0  0  0  0  # atno 5218 bound_to 1931
  -11.1736  -23.2078  -31.3847 LP  0  0  0  0  0  0  0  0  0  0  0  0  # atno 5224 bound_to 1070
  -12.0094  -22.2056  -30.4030 LP  0  0  0  0  0  0  0  0  0  0  0  0  # atno 5225 bound_to 1070

$$$$
IA_130.cdx|SeH_inactivess_minimized|sdf|32|dock5
  -GOLD-   4172119163D 1   1.00000     0.00000

 30 30  0  0  0  0  0  0  0  0  1 V2000
  -16.5860  -23.4994  -38.4953 C   0  0  0  0  0  0  0  0  0  0  0  0
  -17.9230  -23.1021  -38.5133 C   0  0  0  0  0  0  0  0  0  0  0  0
  -17.0250  -24.8901  -36.5691 C   0  0  0  0  0  0  0  0  0  0  0  0
  -16.1370  -24.3934  -37.5232 C   0  0  0  0  0  0  0  0  0  0  0  0
  -18.8109  -23.5989  -37.5591 C   0  0  0  0  0  0  0  0  0  0  0  0
  -18.3620  -24.4930  -36.5871 C   0  0  0  0  0  0  0  0  0  0  0  0
   -9.0740  -26.2401  -34.2680 C   0  0  0  0  0  0  0  0  0  0  0  0
  -14.0516  -25.3055  -36.4280 C   0  0  0  0  0  0  0  0  0  0  0  0
  -10.3977  -25.6965  -33.7769 C   0  0  0  0  0  0  0  0  0  0  0  0
  -11.2581  -25.0999  -34.8940 C   0  0  0  0  0  0  0  0  0  0  0  0
  -11.7441  -26.1222  -35.9204 C   0  0  0  0  0  0  0  0  0  0  0  0
  -14.7814  -24.7964  -37.5058 N   0  0  0  0  0  0  0  0  0  0  0  0
  -12.7333  -25.5869  -36.8157 N   0  0  0  0  0  0  0  0  0  0  0  0
   -7.9997  -25.6588  -34.2069 O   0  0  0  0  0  0  0  0  0  0  0  0
  -14.4662  -25.4957  -35.2872 O   0  0  0  0  0  0  0  0  0  0  0  0
   -9.2100  -27.4925  -34.7778 O   0  0  0  0  0  0  0  0  0  0  0  0
  -20.4540  -23.0664  -37.6323 Cl  0  0  0  0  0  0  0  0  0  0  0  0
  -19.4133  -25.1413  -35.3774 Cl  0  0  0  0  0  0  0  0  0  0  0  0
  -15.9027  -23.1075  -39.2443 H   0  0  0  0  0  0  0  0  0  0  0  0
  -18.2557  -22.4059  -39.2791 H   0  0  0  0  0  0  0  0  0  0  0  0
  -16.6686  -25.5863  -35.8125 H   0  0  0  0  0  0  0  0  0  0  0  0
  -10.9418  -26.4938  -33.2608 H   0  0  0  0  0  0  0  0  0  0  0  0
  -10.1707  -24.9072  -33.0507 H   0  0  0  0  0  0  0  0  0  0  0  0
  -12.1271  -24.6076  -34.4396 H   0  0  0  0  0  0  0  0  0  0  0  0
  -10.6882  -24.3216  -35.4160 H   0  0  0  0  0  0  0  0  0  0  0  0
  -12.1716  -27.0094  -35.4452 H   0  0  0  0  0  0  0  0  0  0  0  0
  -10.9015  -26.4446  -36.5408 H   0  0  0  0  0  0  0  0  0  0  0  0
  -14.2817  -24.7033  -38.3867 H   0  0  0  0  0  0  0  0  0  0  0  0
  -12.4633  -25.4025  -37.7803 H   0  0  0  0  0  0  0  0  0  0  0  0
   -8.3766  -27.9066  -35.0893 H   0  0  0  0  0  0  0  0  0  0  0  0
  1  2  1  0  0  0  0
  1  4  2  0  0  0  0
  2  5  2  0  0  0  0
  3  4  1  0  0  0  0
  3  6  2  0  0  0  0
  4 12  1  0  0  0  0
  5  6  1  0  0  0  0
  5 17  1  0  0  0  0
  6 18  1  0  0  0  0
  7  9  1  0  0  0  0
  7 14  2  0  0  0  0
  7 16  1  0  0  0  0
  8 12  1  0  0  0  0
  8 13  1  0  0  0  0
  8 15  2  0  0  0  0
  9 10  1  0  0  0  0
 10 11  1  0  0  0  0
 11 13  1  0  0  0  0
  1 19  1  0  0  0  0
  2 20  1  0  0  0  0
  3 21  1  0  0  0  0
  9 22  1  0  0  0  0
  9 23  1  0  0  0  0
 10 24  1  0  0  0  0
 10 25  1  0  0  0  0
 11 26  1  0  0  0  0
 11 27  1  0  0  0  0
 12 28  1  0  0  0  0
 13 29  1  0  0  0  0
 16 30  1  0  0  0  0
M  END
> <Name>
IA_130.cdx

> <SourceTag>
IA_130

> <Gold.Version>
5.2

> <Gold.Id.Protein>
6HGV|6HGV_protein|mol2

> <Gold.Goldscore.Fitness>
58.9823

> <Gold.Goldscore.Internal.Vdw>
-1.9776

> <Gold.Goldscore.Internal.Torsion>
-2.6092

> <Gold.Goldscore.External.Vdw>
42.2808

> <Gold.Goldscore.Internal.HBond>
0.0000

> <Gold.Goldscore.External.HBond>
2.6826

> <Gold.Goldscore.Internal.Correction>
-2.7504

> <Gold.Goldscore.Hbonds>
donor molecule, donor type, donor heavy atom, donor atom, acceptor molecule, acceptor atom, score
      L1  H    12    28       P1  1931  0.84
      L1  H    13    29       P1  1931  0.50

> <Gold.Goldscore.Internal.Vdw.Weighted>
-1.9776

> <Gold.Goldscore.Internal.Torsion.Weighted>
-2.6092

> <Gold.Goldscore.External.Vdw.Weighted>
58.1361

> <Gold.Goldscore.Internal.HBond.Weighted>
0.0000

> <Gold.Goldscore.External.HBond.Weighted>
2.6826

> <Gold.Goldscore.Internal.Correction.Weighted>
-2.7504

> <Gold.Protein.RotatedTorsions>
[ 3781 1176 1175 1172 ] final  -94.43 input   60.00 | X-H torsion
[ 3847 1247 1246 1244 ] final  -86.15 input   60.00 | X-H torsion
[ 4507 1931 1930 1928 ] final  149.94 input   60.00 | X-H torsion
[ 3677 1070 1069 1066 ] final  -84.72 input   60.00 | X-H torsion
[ 3525  925  924  922 ] final    4.23 input   59.99 | X-H torsion
[ 4531 1957 1955 1953 ] final -170.48 input   60.00 | X-H torsion

> <Gold.Protein.ActiveResidues>
 PHE267  PRO268  MET310  ASP335  TRP336  MET339  TYR343  THR360  PRO361  ILE363 
 PRO371  SER374  ILE375  ASN378  PHE381  TYR383  GLN384  PHE387  LEU408  LEU417 
 MET419  LEU428  TYR466  MET469  ASN472  ASP496  VAL498  LEU499  MET503  HIS524 
 TRP525 

> <Gold.Protein.RotatedAtoms>
   -3.5569  -29.5584  -30.5305 H   0  0  0  0  0  0  0  0  0  0  0  0  # atno 3525 bound_to 925 
  -11.9623  -23.8278  -31.3471 H   0  0  0  0  0  0  0  0  0  0  0  0  # atno 3677 bound_to 1070
   -9.7627  -36.4107  -34.0285 H   0  0  0  0  0  0  0  0  0  0  0  0  # atno 3781 bound_to 1176
  -15.9309  -27.5139  -37.4288 H   0  0  0  0  0  0  0  0  0  0  0  0  # atno 3847 bound_to 1247
  -12.5950  -23.7833  -39.7913 H   0  0  0  0  0  0  0  0  0  0  0  0  # atno 4507 bound_to 1931
   -1.4078  -33.6388  -36.9842 H   0  0  0  0  0  0  0  0  0  0  0  0  # atno 4531 bound_to 1957
   -9.5249  -36.8311  -32.4745 LP  0  0  0  0  0  0  0  0  0  0  0  0  # atno 5205 bound_to 1176
  -10.8251  -37.3946  -33.2860 LP  0  0  0  0  0  0  0  0  0  0  0  0  # atno 5206 bound_to 1176
  -14.4034  -27.7735  -37.9262 LP  0  0  0  0  0  0  0  0  0  0  0  0  # atno 5215 bound_to 1247
  -15.2249  -28.9537  -37.1523 LP  0  0  0  0  0  0  0  0  0  0  0  0  # atno 5216 bound_to 1247
  -12.9314  -25.0557  -38.8343 LP  0  0  0  0  0  0  0  0  0  0  0  0  # atno 5217 bound_to 1931
  -13.6717  -24.9007  -40.2815 LP  0  0  0  0  0  0  0  0  0  0  0  0  # atno 5218 bound_to 1931
  -11.1950  -22.4508  -30.9430 LP  0  0  0  0  0  0  0  0  0  0  0  0  # atno 5224 bound_to 1070
  -12.6966  -22.7491  -30.3747 LP  0  0  0  0  0  0  0  0  0  0  0  0  # atno 5225 bound_to 1070

$$$$
IA_162.cdx|SeH_inactivess_minimized|sdf|64|dock4
  -GOLD-   4172120 33D 1   1.00000     0.00000

 18 18  0  0  0  0  0  0  0  0  1 V2000
   -9.2800  -29.7100  -34.1989 C   0  0  0  0  0  0  0  0  0  0  0  0
   -9.0226  -29.5586  -35.5613 C   0  0  0  0  0  0  0  0  0  0  0  0
  -10.1344  -28.8205  -33.5473 C   0  0  0  0  0  0  0  0  0  0  0  0
   -9.6195  -28.5176  -36.2724 C   0  0  0  0  0  0  0  0  0  0  0  0
  -10.7313  -27.7794  -34.2584 C   0  0  0  0  0  0  0  0  0  0  0  0
  -10.4739  -27.6279  -35.6209 C   0  0  0  0  0  0  0  0  0  0  0  0
  -11.3399  -25.2719  -35.9933 C   0  0  0  0  0  0  0  0  0  0  0  0
  -11.9449  -24.4594  -36.9031 N   0  0  0  0  0  0  0  0  0  0  0  0
  -11.0710  -26.5868  -36.3323 N   0  0  0  0  0  0  0  0  0  0  0  0
  -10.8662  -24.6579  -34.5057 S   0  0  0  0  0  0  0  0  0  0  0  0
   -8.8161  -30.5211  -33.6450 H   0  0  0  0  0  0  0  0  0  0  0  0
   -8.3582  -30.2515  -36.0691 H   0  0  0  0  0  0  0  0  0  0  0  0
  -10.3354  -28.9392  -32.4865 H   0  0  0  0  0  0  0  0  0  0  0  0
   -9.4117  -28.4095  -37.3339 H   0  0  0  0  0  0  0  0  0  0  0  0
  -11.3955  -27.0922  -33.7401 H   0  0  0  0  0  0  0  0  0  0  0  0
  -12.0250  -23.4627  -36.7299 H   0  0  0  0  0  0  0  0  0  0  0  0
  -12.2142  -24.7668  -37.8295 H   0  0  0  0  0  0  0  0  0  0  0  0
  -11.3561  -26.8157  -37.2917 H   0  0  0  0  0  0  0  0  0  0  0  0
  1  2  2  0  0  0  0
  1  3  1  0  0  0  0
  2  4  1  0  0  0  0
  3  5  2  0  0  0  0
  4  6  2  0  0  0  0
  5  6  1  0  0  0  0
  6  9  1  0  0  0  0
  7  8  1  0  0  0  0
  7  9  1  0  0  0  0
  7 10  2  0  0  0  0
  1 11  1  0  0  0  0
  2 12  1  0  0  0  0
  3 13  1  0  0  0  0
  4 14  1  0  0  0  0
  5 15  1  0  0  0  0
  8 16  1  0  0  0  0
  8 17  1  0  0  0  0
  9 18  1  0  0  0  0
M  END
> <Name>
IA_162.cdx

> <SourceTag>
IA_162

> <Gold.Version>
5.2

> <Gold.Id.Protein>
6HGV|6HGV_protein|mol2

> <Gold.Goldscore.Fitness>
38.6889

> <Gold.Goldscore.Internal.Vdw>
-0.6540

> <Gold.Goldscore.Internal.Torsion>
-2.4059

> <Gold.Goldscore.External.Vdw>
24.2761

> <Gold.Goldscore.Internal.HBond>
0.0000

> <Gold.Goldscore.External.HBond>
5.5494

> <Gold.Goldscore.Internal.Correction>
-2.8197

> <Gold.Goldscore.Hbonds>
donor molecule, donor type, donor heavy atom, donor atom, acceptor molecule, acceptor atom, score
      L1  H     8    16       P1   854  0.65
      L1  H     8    17       P1  1931  0.82

> <Gold.Goldscore.Internal.Vdw.Weighted>
-0.6540

> <Gold.Goldscore.Internal.Torsion.Weighted>
-2.4059

> <Gold.Goldscore.External.Vdw.Weighted>
33.3797

> <Gold.Goldscore.Internal.HBond.Weighted>
0.0000

> <Gold.Goldscore.External.HBond.Weighted>
5.5494

> <Gold.Goldscore.Internal.Correction.Weighted>
-2.8197

> <Gold.Protein.RotatedTorsions>
[ 3781 1176 1175 1172 ] final  -87.94 input   60.00 | X-H torsion
[ 3847 1247 1246 1244 ] final  156.96 input   60.00 | X-H torsion
[ 4507 1931 1930 1928 ] final -177.07 input   60.00 | X-H torsion
[ 3677 1070 1069 1066 ] final -136.81 input   60.00 | X-H torsion
[ 3525  925  924  922 ] final  -93.09 input   59.99 | X-H torsion
[ 4531 1957 1955 1953 ] final -150.51 input   60.00 | X-H torsion

> <Gold.Protein.ActiveResidues>
 PHE267  PRO268  MET310  ASP335  TRP336  MET339  TYR343  THR360  PRO361  ILE363 
 PRO371  SER374  ILE375  ASN378  PHE381  TYR383  GLN384  PHE387  LEU408  LEU417 
 MET419  LEU428  TYR466  MET469  ASN472  ASP496  VAL498  LEU499  MET503  HIS524 
 TRP525 

> <Gold.Protein.RotatedAtoms>
   -3.3961  -29.7550  -29.1477 H   0  0  0  0  0  0  0  0  0  0  0  0  # atno 3525 bound_to 925 
  -11.2786  -23.3782  -31.4272 H   0  0  0  0  0  0  0  0  0  0  0  0  # atno 3677 bound_to 1070
   -9.8487  -36.4502  -34.0762 H   0  0  0  0  0  0  0  0  0  0  0  0  # atno 3781 bound_to 1176
  -14.4330  -27.7320  -37.9332 H   0  0  0  0  0  0  0  0  0  0  0  0  # atno 3847 bound_to 1247
  -12.9017  -23.8632  -40.2182 H   0  0  0  0  0  0  0  0  0  0  0  0  # atno 4507 bound_to 1931
   -1.2830  -33.3396  -37.0027 H   0  0  0  0  0  0  0  0  0  0  0  0  # atno 4531 bound_to 1957
   -9.4588  -36.7668  -32.5283 LP  0  0  0  0  0  0  0  0  0  0  0  0  # atno 5205 bound_to 1176
  -10.8046  -37.4190  -33.1841 LP  0  0  0  0  0  0  0  0  0  0  0  0  # atno 5206 bound_to 1176
  -15.1769  -28.9607  -37.1685 LP  0  0  0  0  0  0  0  0  0  0  0  0  # atno 5215 bound_to 1247
  -15.9599  -27.5469  -37.4020 LP  0  0  0  0  0  0  0  0  0  0  0  0  # atno 5216 bound_to 1247
  -12.6140  -24.6253  -38.8094 LP  0  0  0  0  0  0  0  0  0  0  0  0  # atno 5217 bound_to 1931
  -13.6802  -25.2507  -39.8765 LP  0  0  0  0  0  0  0  0  0  0  0  0  # atno 5218 bound_to 1931
  -11.8209  -22.1733  -30.4773 LP  0  0  0  0  0  0  0  0  0  0  0  0  # atno 5224 bound_to 1070
  -12.7593  -23.4795  -30.7598 LP  0  0  0  0  0  0  0  0  0  0  0  0  # atno 5225 bound_to 1070

$$$$
IA_131.cdx|SeH_inactivess_minimized|sdf|33|dock3
  -GOLD-   4172119183D 1   1.00000     0.00000

 42 42  0  0  0  0  0  0  0  0  1 V2000
   -6.2924  -29.4642  -34.2504 C   0  0  0  0  0  0  0  0  0  0  0  0
   -4.9833  -29.9022  -34.0502 C   0  0  0  0  0  0  0  0  0  0  0  0
   -6.9604  -31.7172  -34.8114 C   0  0  0  0  0  0  0  0  0  0  0  0
   -7.2810  -30.3718  -34.6309 C   0  0  0  0  0  0  0  0  0  0  0  0
   -4.6628  -31.2477  -34.2306 C   0  0  0  0  0  0  0  0  0  0  0  0
   -5.6514  -32.1553  -34.6112 C   0  0  0  0  0  0  0  0  0  0  0  0
  -12.8509  -25.3202  -36.6277 C   0  0  0  0  0  0  0  0  0  0  0  0
   -9.6976  -30.4614  -34.0534 C   0  0  0  0  0  0  0  0  0  0  0  0
  -10.1580  -32.0347  -32.1478 C   0  0  0  0  0  0  0  0  0  0  0  0
   -8.0137  -30.8131  -32.2272 C   0  0  0  0  0  0  0  0  0  0  0  0
  -12.7301  -25.6403  -35.1554 C   0  0  0  0  0  0  0  0  0  0  0  0
  -11.2949  -25.9909  -34.7628 C   0  0  0  0  0  0  0  0  0  0  0  0
  -10.8406  -27.2915  -35.4280 C   0  0  0  0  0  0  0  0  0  0  0  0
   -9.3615  -27.6086  -35.1949 C   0  0  0  0  0  0  0  0  0  0  0  0
   -8.9152  -28.9197  -35.8322 C   0  0  0  0  0  0  0  0  0  0  0  0
   -8.6333  -29.9190  -34.8371 N   0  0  0  0  0  0  0  0  0  0  0  0
   -9.3021  -31.0808  -32.8511 N   0  0  0  0  0  0  0  0  0  0  0  0
  -13.5145  -25.9503  -37.4392 O   0  0  0  0  0  0  0  0  0  0  0  0
  -10.8803  -30.4356  -34.4153 O   0  0  0  0  0  0  0  0  0  0  0  0
  -12.1190  -24.2243  -36.9587 O   0  0  0  0  0  0  0  0  0  0  0  0
   -3.0226  -31.7278  -33.9702 Cl  0  0  0  0  0  0  0  0  0  0  0  0
   -5.3158  -33.8340  -34.8523 Cl  0  0  0  0  0  0  0  0  0  0  0  0
   -6.5318  -28.4139  -34.1056 H   0  0  0  0  0  0  0  0  0  0  0  0
   -4.2260  -29.1813  -33.7523 H   0  0  0  0  0  0  0  0  0  0  0  0
   -7.7357  -32.4202  -35.1095 H   0  0  0  0  0  0  0  0  0  0  0  0
  -11.0583  -32.2350  -32.7344 H   0  0  0  0  0  0  0  0  0  0  0  0
  -10.4539  -31.6316  -31.1755 H   0  0  0  0  0  0  0  0  0  0  0  0
   -9.6245  -32.9759  -31.9893 H   0  0  0  0  0  0  0  0  0  0  0  0
   -7.2639  -31.5177  -32.5962 H   0  0  0  0  0  0  0  0  0  0  0  0
   -8.0905  -30.9174  -31.1415 H   0  0  0  0  0  0  0  0  0  0  0  0
   -7.6854  -29.7964  -32.4592 H   0  0  0  0  0  0  0  0  0  0  0  0
  -13.3895  -26.4869  -34.9340 H   0  0  0  0  0  0  0  0  0  0  0  0
  -13.0652  -24.7654  -34.5875 H   0  0  0  0  0  0  0  0  0  0  0  0
  -11.2247  -26.0886  -33.6724 H   0  0  0  0  0  0  0  0  0  0  0  0
  -10.6316  -25.1671  -35.0509 H   0  0  0  0  0  0  0  0  0  0  0  0
  -11.4351  -28.1236  -35.0310 H   0  0  0  0  0  0  0  0  0  0  0  0
  -11.0411  -27.2463  -36.5054 H   0  0  0  0  0  0  0  0  0  0  0  0
   -9.1860  -27.6570  -34.1125 H   0  0  0  0  0  0  0  0  0  0  0  0
   -8.7410  -26.7843  -35.5683 H   0  0  0  0  0  0  0  0  0  0  0  0
   -8.0010  -28.7868  -36.4176 H   0  0  0  0  0  0  0  0  0  0  0  0
   -9.6933  -29.3238  -36.4869 H   0  0  0  0  0  0  0  0  0  0  0  0
  -12.2055  -23.9357  -37.8925 H   0  0  0  0  0  0  0  0  0  0  0  0
  1  2  1  0  0  0  0
  1  4  2  0  0  0  0
  2  5  2  0  0  0  0
  3  4  1  0  0  0  0
  3  6  2  0  0  0  0
  4 16  1  0  0  0  0
  5  6  1  0  0  0  0
  5 21  1  0  0  0  0
  6 22  1  0  0  0  0
  7 11  1  0  0  0  0
  7 18  2  0  0  0  0
  7 20  1  0  0  0  0
  8 16  1  0  0  0  0
  8 17  1  0  0  0  0
  8 19  2  0  0  0  0
  9 17  1  0  0  0  0
 10 17  1  0  0  0  0
 11 12  1  0  0  0  0
 12 13  1  0  0  0  0
 13 14  1  0  0  0  0
 14 15  1  0  0  0  0
 15 16  1  0  0  0  0
  1 23  1  0  0  0  0
  2 24  1  0  0  0  0
  3 25  1  0  0  0  0
  9 26  1  0  0  0  0
  9 27  1  0  0  0  0
  9 28  1  0  0  0  0
 10 29  1  0  0  0  0
 10 30  1  0  0  0  0
 10 31  1  0  0  0  0
 11 32  1  0  0  0  0
 11 33  1  0  0  0  0
 12 34  1  0  0  0  0
 12 35  1  0  0  0  0
 13 36  1  0  0  0  0
 13 37  1  0  0  0  0
 14 38  1  0  0  0  0
 14 39  1  0  0  0  0
 15 40  1  0  0  0  0
 15 41  1  0  0  0  0
 20 42  1  0  0  0  0
M  END
> <Name>
IA_131.cdx

> <SourceTag>
IA_131

> <Gold.Version>
5.2

> <Gold.Id.Protein>
6HGV|6HGV_protein|mol2

> <Gold.Goldscore.Fitness>
50.5904

> <Gold.Goldscore.Internal.Vdw>
-13.4737

> <Gold.Goldscore.Internal.Torsion>
-15.8870

> <Gold.Goldscore.External.Vdw>
36.3737

> <Gold.Goldscore.Internal.HBond>
0.0000

> <Gold.Goldscore.External.HBond>
4.3127

> <Gold.Goldscore.Internal.Correction>
-25.6245

> <Gold.Goldscore.Hbonds>
donor molecule, donor type, donor heavy atom, donor atom, acceptor molecule, acceptor atom, score
      P1  H  1256  3854       L1    19  0.51
      P1  H  1247  3847       L1    18  0.63
      P1  H  1931  4507       L1    18  0.94
      L1  H    20    42       P1  1931  0.07

> <Gold.Goldscore.Internal.Vdw.Weighted>
-13.4737

> <Gold.Goldscore.Internal.Torsion.Weighted>
-15.8870

> <Gold.Goldscore.External.Vdw.Weighted>
50.0139

> <Gold.Goldscore.Internal.HBond.Weighted>
0.0000

> <Gold.Goldscore.External.HBond.Weighted>
4.3127

> <Gold.Goldscore.Internal.Correction.Weighted>
-25.6245

> <Gold.Protein.RotatedTorsions>
[ 3781 1176 1175 1172 ] final  164.31 input   60.00 | X-H torsion
[ 3847 1247 1246 1244 ] final -176.57 input   60.00 | X-H torsion
[ 4507 1931 1930 1928 ] final    5.72 input   60.00 | X-H torsion
[ 3677 1070 1069 1066 ] final  -86.63 input   60.00 | X-H torsion
[ 3525  925  924  922 ] final   43.88 input   59.99 | X-H torsion
[ 4531 1957 1955 1953 ] final   16.48 input   60.00 | X-H torsion

> <Gold.Protein.ActiveResidues>
 PHE267  PRO268  MET310  ASP335  TRP336  MET339  TYR343  THR360  PRO361  ILE363 
 PRO371  SER374  ILE375  ASN378  PHE381  TYR383  GLN384  PHE387  LEU408  LEU417 
 MET419  LEU428  TYR466  MET469  ASN472  ASP496  VAL498  LEU499  MET503  HIS524 
 TRP525 

> <Gold.Protein.RotatedAtoms>
   -3.0458  -29.7516  -30.8542 H   0  0  0  0  0  0  0  0  0  0  0  0  # atno 3525 bound_to 925 
  -11.9336  -23.8217  -31.3577 H   0  0  0  0  0  0  0  0  0  0  0  0  # atno 3677 bound_to 1070
   -9.3584  -36.6536  -32.6599 H   0  0  0  0  0  0  0  0  0  0  0  0  # atno 3781 bound_to 1176
  -14.7122  -27.4072  -37.9479 H   0  0  0  0  0  0  0  0  0  0  0  0  # atno 3847 bound_to 1247
  -13.1959  -25.2762  -39.0263 H   0  0  0  0  0  0  0  0  0  0  0  0  # atno 4507 bound_to 1931
   -3.0055  -32.7229  -36.6646 H   0  0  0  0  0  0  0  0  0  0  0  0  # atno 4531 bound_to 1957
  -10.7394  -37.4461  -32.9958 LP  0  0  0  0  0  0  0  0  0  0  0  0  # atno 5205 bound_to 1176
  -10.0178  -36.5350  -34.1429 LP  0  0  0  0  0  0  0  0  0  0  0  0  # atno 5206 bound_to 1176
  -14.7836  -28.9151  -37.3403 LP  0  0  0  0  0  0  0  0  0  0  0  0  # atno 5215 bound_to 1247
  -16.0720  -27.9196  -37.2155 LP  0  0  0  0  0  0  0  0  0  0  0  0  # atno 5216 bound_to 1247
  -13.5383  -24.5693  -40.4514 LP  0  0  0  0  0  0  0  0  0  0  0  0  # atno 5217 bound_to 1931
  -12.4597  -23.8837  -39.4349 LP  0  0  0  0  0  0  0  0  0  0  0  0  # atno 5218 bound_to 1931
  -11.2096  -22.4303  -30.9242 LP  0  0  0  0  0  0  0  0  0  0  0  0  # atno 5224 bound_to 1070
  -12.7110  -22.7759  -30.3829 LP  0  0  0  0  0  0  0  0  0  0  0  0  # atno 5225 bound_to 1070

$$$$
IA_113.cdx|SeH_inactivess_minimized|sdf|16|dock10
  -GOLD-   4172118543D 1   1.00000     0.00000

 33 33  0  0  0  0  0  0  0  0  1 V2000
  -17.6431  -25.3196  -35.7141 C   0  0  0  0  0  0  0  0  0  0  0  0
  -13.6541  -25.1647  -37.0685 C   0  0  0  0  0  0  0  0  0  0  0  0
  -10.8007  -26.7193  -33.5772 C   0  0  0  0  0  0  0  0  0  0  0  0
  -11.4411  -25.3828  -33.9424 C   0  0  0  0  0  0  0  0  0  0  0  0
  -11.1225  -27.8040  -34.6017 C   0  0  0  0  0  0  0  0  0  0  0  0
  -11.0709  -24.9506  -35.3618 C   0  0  0  0  0  0  0  0  0  0  0  0
  -10.7528  -27.3662  -36.0196 C   0  0  0  0  0  0  0  0  0  0  0  0
  -11.3850  -26.0242  -36.4122 C   0  0  0  0  0  0  0  0  0  0  0  0
  -17.4244  -25.2541  -37.2101 C   0  0  0  0  0  0  0  0  0  0  0  0
  -16.0491  -24.7187  -37.5870 C   0  0  0  0  0  0  0  0  0  0  0  0
  -12.8337  -26.1727  -36.5679 N   0  0  0  0  0  0  0  0  0  0  0  0
  -14.9856  -25.5709  -37.1097 N   0  0  0  0  0  0  0  0  0  0  0  0
  -16.7737  -25.5101  -34.8754 O   0  0  0  0  0  0  0  0  0  0  0  0
  -13.2555  -24.0580  -37.4289 O   0  0  0  0  0  0  0  0  0  0  0  0
  -18.9507  -25.1303  -35.3962 O   0  0  0  0  0  0  0  0  0  0  0  0
   -9.7135  -26.5977  -33.4983 H   0  0  0  0  0  0  0  0  0  0  0  0
  -11.1574  -27.0356  -32.5880 H   0  0  0  0  0  0  0  0  0  0  0  0
  -12.5302  -25.4591  -33.8536 H   0  0  0  0  0  0  0  0  0  0  0  0
  -11.1143  -24.6145  -33.2314 H   0  0  0  0  0  0  0  0  0  0  0  0
  -10.5748  -28.7197  -34.3492 H   0  0  0  0  0  0  0  0  0  0  0  0
  -12.1897  -28.0468  -34.5586 H   0  0  0  0  0  0  0  0  0  0  0  0
  -11.6068  -24.0178  -35.6103 H   0  0  0  0  0  0  0  0  0  0  0  0
   -9.9986  -24.6945  -35.3965 H   0  0  0  0  0  0  0  0  0  0  0  0
   -9.6549  -27.3028  -36.1066 H   0  0  0  0  0  0  0  0  0  0  0  0
  -11.0623  -28.1479  -36.7351 H   0  0  0  0  0  0  0  0  0  0  0  0
  -11.0085  -25.7105  -37.3825 H   0  0  0  0  0  0  0  0  0  0  0  0
  -17.5615  -26.2592  -37.6253 H   0  0  0  0  0  0  0  0  0  0  0  0
  -18.1886  -24.5874  -37.6250 H   0  0  0  0  0  0  0  0  0  0  0  0
  -15.8793  -23.7174  -37.1787 H   0  0  0  0  0  0  0  0  0  0  0  0
  -15.9514  -24.6669  -38.6758 H   0  0  0  0  0  0  0  0  0  0  0  0
  -13.2608  -27.0536  -36.2976 H   0  0  0  0  0  0  0  0  0  0  0  0
  -15.2157  -26.5206  -36.8348 H   0  0  0  0  0  0  0  0  0  0  0  0
  -19.1538  -25.1713  -34.4371 H   0  0  0  0  0  0  0  0  0  0  0  0
  1  9  1  0  0  0  0
  1 13  2  0  0  0  0
  1 15  1  0  0  0  0
  2 11  1  0  0  0  0
  2 12  1  0  0  0  0
  2 14  2  0  0  0  0
  3  4  1  0  0  0  0
  3  5  1  0  0  0  0
  4  6  1  0  0  0  0
  5  7  1  0  0  0  0
  6  8  1  0  0  0  0
  7  8  1  0  0  0  0
  8 11  1  0  0  0  0
  9 10  1  0  0  0  0
 10 12  1  0  0  0  0
  3 16  1  0  0  0  0
  3 17  1  0  0  0  0
  4 18  1  0  0  0  0
  4 19  1  0  0  0  0
  5 20  1  0  0  0  0
  5 21  1  0  0  0  0
  6 22  1  0  0  0  0
  6 23  1  0  0  0  0
  7 24  1  0  0  0  0
  7 25  1  0  0  0  0
  8 26  1  0  0  0  0
  9 27  1  0  0  0  0
  9 28  1  0  0  0  0
 10 29  1  0  0  0  0
 10 30  1  0  0  0  0
 11 31  1  0  0  0  0
 12 32  1  0  0  0  0
 15 33  1  0  0  0  0
M  END
> <Name>
IA_113.cdx

> <SourceTag>
IA_113

> <Gold.Version>
5.2

> <Gold.Id.Protein>
6HGV|6HGV_protein|mol2

> <Gold.Goldscore.Fitness>
51.9239

> <Gold.Goldscore.Internal.Vdw>
-1.2034

> <Gold.Goldscore.Internal.Torsion>
-2.1497

> <Gold.Goldscore.External.Vdw>
35.2149

> <Gold.Goldscore.Internal.HBond>
0.0000

> <Gold.Goldscore.External.HBond>
4.8363

> <Gold.Goldscore.Internal.Correction>
-2.0202

> <Gold.Goldscore.Hbonds>
donor molecule, donor type, donor heavy atom, donor atom, acceptor molecule, acceptor atom, score
      L1  H    12    32       P1  1247  0.11
      L1  H    15    33       P1  2185  0.77

> <Gold.Goldscore.Internal.Vdw.Weighted>
-1.2034

> <Gold.Goldscore.Internal.Torsion.Weighted>
-2.1497

> <Gold.Goldscore.External.Vdw.Weighted>
48.4205

> <Gold.Goldscore.Internal.HBond.Weighted>
0.0000

> <Gold.Goldscore.External.HBond.Weighted>
4.8363

> <Gold.Goldscore.Internal.Correction.Weighted>
-2.0202

> <Gold.Protein.RotatedTorsions>
[ 3781 1176 1175 1172 ] final   65.68 input   60.00 | X-H torsion
[ 3847 1247 1246 1244 ] final   73.02 input   60.00 | X-H torsion
[ 4507 1931 1930 1928 ] final  179.62 input   60.00 | X-H torsion
[ 3677 1070 1069 1066 ] final  -52.60 input   60.00 | X-H torsion
[ 3525  925  924  922 ] final  -22.33 input   59.99 | X-H torsion
[ 4531 1957 1955 1953 ] final  146.28 input   60.00 | X-H torsion

> <Gold.Protein.ActiveResidues>
 PHE267  PRO268  MET310  ASP335  TRP336  MET339  TYR343  THR360  PRO361  ILE363 
 PRO371  SER374  ILE375  ASN378  PHE381  TYR383  GLN384  PHE387  LEU408  LEU417 
 MET419  LEU428  TYR466  MET469  ASN472  ASP496  VAL498  LEU499  MET503  HIS524 
 TRP525 

> <Gold.Protein.RotatedAtoms>
   -3.7435  -29.5123  -30.1456 H   0  0  0  0  0  0  0  0  0  0  0  0  # atno 3525 bound_to 925 
  -12.4182  -23.7939  -31.1036 H   0  0  0  0  0  0  0  0  0  0  0  0  # atno 3677 bound_to 1070
  -10.5467  -37.4292  -32.7058 H   0  0  0  0  0  0  0  0  0  0  0  0  # atno 3781 bound_to 1176
  -14.6626  -28.8490  -37.4158 H   0  0  0  0  0  0  0  0  0  0  0  0  # atno 3847 bound_to 1247
  -12.8667  -23.8437  -40.1819 H   0  0  0  0  0  0  0  0  0  0  0  0  # atno 4507 bound_to 1931
   -1.9604  -34.0399  -36.8861 H   0  0  0  0  0  0  0  0  0  0  0  0  # atno 4531 bound_to 1957
  -10.3104  -36.7260  -34.1542 LP  0  0  0  0  0  0  0  0  0  0  0  0  # atno 5205 bound_to 1176
   -9.2500  -36.4740  -32.9382 LP  0  0  0  0  0  0  0  0  0  0  0  0  # atno 5206 bound_to 1176
  -16.0669  -28.0674  -37.1609 LP  0  0  0  0  0  0  0  0  0  0  0  0  # atno 5215 bound_to 1247
  -14.8387  -27.3154  -37.9307 LP  0  0  0  0  0  0  0  0  0  0  0  0  # atno 5216 bound_to 1247
  -12.6407  -24.6717  -38.7993 LP  0  0  0  0  0  0  0  0  0  0  0  0  # atno 5217 bound_to 1931
  -13.6888  -25.2240  -39.9232 LP  0  0  0  0  0  0  0  0  0  0  0  0  # atno 5218 bound_to 1931
  -11.0858  -22.8690  -31.2349 LP  0  0  0  0  0  0  0  0  0  0  0  0  # atno 5224 bound_to 1070
  -12.3468  -22.3651  -30.3280 LP  0  0  0  0  0  0  0  0  0  0  0  0  # atno 5225 bound_to 1070

$$$$
IA_45|SeH_inactivess_minimized|sdf|130|dock1
  -GOLD-   4172121433D 1   1.00000     0.00000

 66 68  0  0  0  0  0  0  0  0  1 V2000
   -7.5191  -29.3490  -34.4216 C   0  0  0  0  0  0  0  0  0  0  0  0
   -4.7109  -29.7600  -33.4293 C   0  0  0  0  0  0  0  0  0  0  0  0
  -13.6108  -25.2113  -37.1321 C   0  0  0  0  0  0  0  0  0  0  0  0
  -17.7231  -23.8642  -40.1462 C   0  0  0  0  0  0  0  0  0  0  0  0
  -18.6144  -23.5520  -37.8230 C   0  0  0  0  0  0  0  0  0  0  0  0
  -18.1040  -25.8563  -38.6710 C   0  0  0  0  0  0  0  0  0  0  0  0
  -16.2782  -22.8292  -38.3774 C   0  0  0  0  0  0  0  0  0  0  0  0
  -15.7675  -25.1357  -39.2264 C   0  0  0  0  0  0  0  0  0  0  0  0
  -16.6601  -24.8239  -36.8995 C   0  0  0  0  0  0  0  0  0  0  0  0
  -17.7155  -22.9446  -38.9135 C   0  0  0  0  0  0  0  0  0  0  0  0
  -17.2027  -25.2606  -39.7659 C   0  0  0  0  0  0  0  0  0  0  0  0
  -18.0988  -24.9471  -37.4302 C   0  0  0  0  0  0  0  0  0  0  0  0
  -15.7381  -24.2213  -37.9816 C   0  0  0  0  0  0  0  0  0  0  0  0
   -6.6285  -32.4930  -35.4811 C   0  0  0  0  0  0  0  0  0  0  0  0
   -4.1465  -32.4118  -35.0985 C   0  0  0  0  0  0  0  0  0  0  0  0
   -8.9957  -29.0842  -34.1805 C   0  0  0  0  0  0  0  0  0  0  0  0
   -9.4411  -27.6754  -34.5711 C   0  0  0  0  0  0  0  0  0  0  0  0
  -10.9283  -27.3803  -34.3381 C   0  0  0  0  0  0  0  0  0  0  0  0
  -11.3389  -25.9599  -34.7407 C   0  0  0  0  0  0  0  0  0  0  0  0
  -11.3460  -25.7620  -36.2540 C   0  0  0  0  0  0  0  0  0  0  0  0
   -5.6947  -30.8872  -33.7304 C   0  0  2  0  0  0  0  0  0  0  0  0
   -5.4488  -31.6057  -35.0745 C   0  0  0  0  0  0  0  0  0  0  0  0
   -7.0570  -30.4129  -33.6606 N   0  0  0  0  0  0  0  0  0  0  0  0
  -14.3858  -24.1096  -37.4803 N   0  0  0  0  0  0  0  0  0  0  0  0
  -12.3529  -24.8193  -36.6809 N   0  0  0  0  0  0  0  0  0  0  0  0
   -6.8419  -28.7064  -35.2197 O   0  0  0  0  0  0  0  0  0  0  0  0
   -4.2415  -29.5492  -32.3167 O   0  0  0  0  0  0  0  0  0  0  0  0
  -13.9852  -26.3805  -37.2118 O   0  0  0  0  0  0  0  0  0  0  0  0
   -4.4276  -28.9616  -34.4877 O   0  0  0  0  0  0  0  0  0  0  0  0
  -18.7402  -23.9403  -40.5498 H   0  0  0  0  0  0  0  0  0  0  0  0
  -17.0977  -23.4342  -40.9382 H   0  0  0  0  0  0  0  0  0  0  0  0
  -18.6304  -22.8975  -36.9428 H   0  0  0  0  0  0  0  0  0  0  0  0
  -19.6471  -23.6231  -38.1860 H   0  0  0  0  0  0  0  0  0  0  0  0
  -19.1279  -25.9682  -39.0483 H   0  0  0  0  0  0  0  0  0  0  0  0
  -17.7525  -26.8598  -38.4016 H   0  0  0  0  0  0  0  0  0  0  0  0
  -15.6329  -22.3730  -39.1396 H   0  0  0  0  0  0  0  0  0  0  0  0
  -16.2564  -22.1536  -37.5120 H   0  0  0  0  0  0  0  0  0  0  0  0
  -15.3758  -26.1305  -38.9759 H   0  0  0  0  0  0  0  0  0  0  0  0
  -15.1089  -24.7344  -40.0080 H   0  0  0  0  0  0  0  0  0  0  0  0
  -16.6478  -24.1972  -35.9981 H   0  0  0  0  0  0  0  0  0  0  0  0
  -16.2919  -25.8116  -36.5920 H   0  0  0  0  0  0  0  0  0  0  0  0
  -18.0882  -21.9518  -39.1896 H   0  0  0  0  0  0  0  0  0  0  0  0
  -17.2116  -25.9115  -40.6472 H   0  0  0  0  0  0  0  0  0  0  0  0
  -18.7439  -25.3753  -36.6550 H   0  0  0  0  0  0  0  0  0  0  0  0
   -6.8272  -33.2417  -34.7062 H   0  0  0  0  0  0  0  0  0  0  0  0
   -6.4116  -33.0294  -36.4107 H   0  0  0  0  0  0  0  0  0  0  0  0
   -7.5477  -31.9176  -35.6226 H   0  0  0  0  0  0  0  0  0  0  0  0
   -4.1407  -33.1971  -34.3358 H   0  0  0  0  0  0  0  0  0  0  0  0
   -4.0149  -32.8967  -36.0722 H   0  0  0  0  0  0  0  0  0  0  0  0
   -3.2773  -31.7679  -34.9323 H   0  0  0  0  0  0  0  0  0  0  0  0
   -9.5493  -29.8087  -34.7910 H   0  0  0  0  0  0  0  0  0  0  0  0
   -9.2428  -29.2951  -33.1349 H   0  0  0  0  0  0  0  0  0  0  0  0
   -8.8499  -26.9379  -34.0142 H   0  0  0  0  0  0  0  0  0  0  0  0
   -9.2120  -27.5182  -35.6325 H   0  0  0  0  0  0  0  0  0  0  0  0
  -11.1360  -27.5215  -33.2700 H   0  0  0  0  0  0  0  0  0  0  0  0
  -11.5428  -28.1126  -34.8732 H   0  0  0  0  0  0  0  0  0  0  0  0
  -12.3452  -25.7531  -34.3574 H   0  0  0  0  0  0  0  0  0  0  0  0
  -10.6598  -25.2296  -34.2864 H   0  0  0  0  0  0  0  0  0  0  0  0
  -10.3763  -25.4033  -36.6130 H   0  0  0  0  0  0  0  0  0  0  0  0
  -11.5640  -26.7111  -36.7540 H   0  0  0  0  0  0  0  0  0  0  0  0
   -5.6033  -31.6016  -32.9033 H   0  0  0  0  0  0  0  0  0  0  0  0
   -5.3613  -30.8327  -35.8512 H   0  0  0  0  0  0  0  0  0  0  0  0
   -7.6823  -30.8624  -32.9980 H   0  0  0  0  0  0  0  0  0  0  0  0
  -13.9834  -23.1842  -37.3778 H   0  0  0  0  0  0  0  0  0  0  0  0
  -12.1150  -23.8325  -36.6929 H   0  0  0  0  0  0  0  0  0  0  0  0
   -3.8076  -28.2266  -34.2986 H   0  0  0  0  0  0  0  0  0  0  0  0
  1 16  1  0  0  0  0
  1 23  1  0  0  0  0
  1 26  2  0  0  0  0
  2 21  1  0  0  0  0
  2 27  2  0  0  0  0
  2 29  1  0  0  0  0
  3 24  1  0  0  0  0
  3 25  1  0  0  0  0
  3 28  2  0  0  0  0
  4 10  1  0  0  0  0
  4 11  1  0  0  0  0
  5 10  1  0  0  0  0
  5 12  1  0  0  0  0
  6 11  1  0  0  0  0
  6 12  1  0  0  0  0
  7 10  1  0  0  0  0
  7 13  1  0  0  0  0
  8 11  1  0  0  0  0
  8 13  1  0  0  0  0
  9 12  1  0  0  0  0
  9 13  1  0  0  0  0
 13 24  1  0  0  0  0
 14 22  1  0  0  0  0
 15 22  1  0  0  0  0
 16 17  1  0  0  0  0
 17 18  1  0  0  0  0
 18 19  1  0  0  0  0
 19 20  1  0  0  0  0
 20 25  1  0  0  0  0
 21 22  1  0  0  0  0
 21 23  1  0  0  0  0
  4 30  1  0  0  0  0
  4 31  1  0  0  0  0
  5 32  1  0  0  0  0
  5 33  1  0  0  0  0
  6 34  1  0  0  0  0
  6 35  1  0  0  0  0
  7 36  1  0  0  0  0
  7 37  1  0  0  0  0
  8 38  1  0  0  0  0
  8 39  1  0  0  0  0
  9 40  1  0  0  0  0
  9 41  1  0  0  0  0
 10 42  1  0  0  0  0
 11 43  1  0  0  0  0
 12 44  1  0  0  0  0
 14 45  1  0  0  0  0
 14 46  1  0  0  0  0
 14 47  1  0  0  0  0
 15 48  1  0  0  0  0
 15 49  1  0  0  0  0
 15 50  1  0  0  0  0
 16 51  1  0  0  0  0
 16 52  1  0  0  0  0
 17 53  1  0  0  0  0
 17 54  1  0  0  0  0
 18 55  1  0  0  0  0
 18 56  1  0  0  0  0
 19 57  1  0  0  0  0
 19 58  1  0  0  0  0
 20 59  1  0  0  0  0
 20 60  1  0  0  0  0
 21 61  1  0  0  0  0
 22 62  1  0  0  0  0
 23 63  1  0  0  0  0
 24 64  1  0  0  0  0
 25 65  1  0  0  0  0
 29 66  1  0  0  0  0
M  END
> <Name>
IA_45

> <SourceTag>
IA_45

> <Gold.Version>
5.2

> <Gold.Id.Protein>
6HGV|6HGV_protein|mol2

> <Gold.Goldscore.Fitness>
71.6574

> <Gold.Goldscore.Internal.Vdw>
-4.1742

> <Gold.Goldscore.Internal.Torsion>
-5.2354

> <Gold.Goldscore.External.Vdw>
49.9498

> <Gold.Goldscore.Internal.HBond>
0.0000

> <Gold.Goldscore.External.HBond>
4.9973

> <Gold.Goldscore.Internal.Correction>
-7.3887

> <Gold.Goldscore.Hbonds>
donor molecule, donor type, donor heavy atom, donor atom, acceptor molecule, acceptor atom, score
      P1  H  1247  3847       L1    28  0.02
      P1  H   925  3525       L1    27  1.00
      L1  H    24    64       P1   854  0.26
      L1  H    25    65       P1   854  0.23

> <Gold.Goldscore.Internal.Vdw.Weighted>
-4.1742

> <Gold.Goldscore.Internal.Torsion.Weighted>
-5.2354

> <Gold.Goldscore.External.Vdw.Weighted>
68.6810

> <Gold.Goldscore.Internal.HBond.Weighted>
0.0000

> <Gold.Goldscore.External.HBond.Weighted>
4.9973

> <Gold.Goldscore.Internal.Correction.Weighted>
-7.3887

> <Gold.Protein.RotatedTorsions>
[ 3781 1176 1175 1172 ] final -172.44 input   60.00 | X-H torsion
[ 3847 1247 1246 1244 ] final  152.20 input   60.00 | X-H torsion
[ 4507 1931 1930 1928 ] final  152.26 input   60.00 | X-H torsion
[ 3677 1070 1069 1066 ] final -172.66 input   60.00 | X-H torsion
[ 3525  925  924  922 ] final   20.34 input   59.99 | X-H torsion
[ 4531 1957 1955 1953 ] final -101.44 input   60.00 | X-H torsion

> <Gold.Protein.ActiveResidues>
 PHE267  PRO268  MET310  ASP335  TRP336  MET339  TYR343  THR360  PRO361  ILE363 
 PRO371  SER374  ILE375  ASN378  PHE381  TYR383  GLN384  PHE387  LEU408  LEU417 
 MET419  LEU428  TYR466  MET469  ASN472  ASP496  VAL498  LEU499  MET503  HIS524 
 TRP525 

> <Gold.Protein.RotatedAtoms>
   -3.3738  -29.6221  -30.7072 H   0  0  0  0  0  0  0  0  0  0  0  0  # atno 3525 bound_to 925 
  -11.0908  -22.8702  -31.2302 H   0  0  0  0  0  0  0  0  0  0  0  0  # atno 3677 bound_to 1070
   -9.2501  -36.4656  -32.9688 H   0  0  0  0  0  0  0  0  0  0  0  0  # atno 3781 bound_to 1176
  -14.3983  -27.8005  -37.9207 H   0  0  0  0  0  0  0  0  0  0  0  0  # atno 3847 bound_to 1247
  -12.6126  -23.7804  -39.8247 H   0  0  0  0  0  0  0  0  0  0  0  0  # atno 4507 bound_to 1931
   -1.4352  -32.5782  -36.9607 H   0  0  0  0  0  0  0  0  0  0  0  0  # atno 4531 bound_to 1957
  -10.5312  -37.4261  -32.6784 LP  0  0  0  0  0  0  0  0  0  0  0  0  # atno 5205 bound_to 1176
  -10.3350  -36.7443  -34.1492 LP  0  0  0  0  0  0  0  0  0  0  0  0  # atno 5206 bound_to 1176
  -15.2504  -28.9490  -37.1442 LP  0  0  0  0  0  0  0  0  0  0  0  0  # atno 5215 bound_to 1247
  -15.9213  -27.4897  -37.4391 LP  0  0  0  0  0  0  0  0  0  0  0  0  # atno 5216 bound_to 1247
  -12.9063  -25.0291  -38.8235 LP  0  0  0  0  0  0  0  0  0  0  0  0  # atno 5217 bound_to 1931
  -13.6791  -24.9303  -40.2587 LP  0  0  0  0  0  0  0  0  0  0  0  0  # atno 5218 bound_to 1931
  -12.3476  -22.3657  -30.3279 LP  0  0  0  0  0  0  0  0  0  0  0  0  # atno 5224 bound_to 1070
  -12.4216  -23.7986  -31.1076 LP  0  0  0  0  0  0  0  0  0  0  0  0  # atno 5225 bound_to 1070

$$$$
IA_91.cdx|SeH_inactivess_minimized|sdf|170|dock2
  -GOLD-   41821 8253D 1   1.00000     0.00000

 49 48  0  0  0  0  0  0  0  0  1 V2000
  -16.8812  -24.8381  -41.8054 C   0  0  0  0  0  0  0  0  0  0  0  0
  -16.8316  -23.9556  -40.9928 C   0  0  0  0  0  0  0  0  0  0  0  0
  -15.5024  -24.3873  -38.4747 C   0  0  0  0  0  0  0  0  0  0  0  0
   -3.7120  -32.7257  -33.9580 C   0  0  0  0  0  0  0  0  0  0  0  0
  -16.7679  -22.8759  -40.0048 C   0  0  0  0  0  0  0  0  0  0  0  0
   -5.1115  -32.8744  -34.5336 C   0  0  0  0  0  0  0  0  0  0  0  0
   -5.6719  -31.5297  -34.9990 C   0  0  0  0  0  0  0  0  0  0  0  0
   -5.8044  -30.5509  -33.8303 C   0  0  0  0  0  0  0  0  0  0  0  0
   -6.4108  -29.2027  -34.2308 C   0  0  0  0  0  0  0  0  0  0  0  0
   -7.9347  -29.2391  -34.3734 C   0  0  0  0  0  0  0  0  0  0  0  0
   -8.4827  -27.8685  -34.7803 C   0  0  0  0  0  0  0  0  0  0  0  0
  -10.0085  -27.7715  -34.6909 C   0  0  0  0  0  0  0  0  0  0  0  0
  -10.5677  -26.4570  -35.2396 C   0  0  0  0  0  0  0  0  0  0  0  0
  -12.0600  -26.5801  -35.5594 C   0  0  0  0  0  0  0  0  0  0  0  0
  -12.5649  -25.3552  -36.3283 C   0  0  0  0  0  0  0  0  0  0  0  0
  -13.9946  -25.5188  -36.8469 C   0  0  0  0  0  0  0  0  0  0  0  0
  -15.7285  -23.1329  -39.0349 N   0  0  0  0  0  0  0  0  0  0  0  0
  -14.4468  -24.3421  -37.5790 N   0  0  0  0  0  0  0  0  0  0  0  0
  -16.1532  -25.3965  -38.7419 O   0  0  0  0  0  0  0  0  0  0  0  0
  -16.9259  -25.6208  -42.5261 H   0  0  0  0  0  0  0  0  0  0  0  0
   -3.2469  -33.7087  -33.8339 H   0  0  0  0  0  0  0  0  0  0  0  0
   -3.0763  -32.1304  -34.6212 H   0  0  0  0  0  0  0  0  0  0  0  0
   -3.7407  -32.2372  -32.9789 H   0  0  0  0  0  0  0  0  0  0  0  0
  -17.7261  -22.7789  -39.4851 H   0  0  0  0  0  0  0  0  0  0  0  0
  -16.5670  -21.9223  -40.5031 H   0  0  0  0  0  0  0  0  0  0  0  0
   -5.7687  -33.3090  -33.7715 H   0  0  0  0  0  0  0  0  0  0  0  0
   -5.0818  -33.5763  -35.3751 H   0  0  0  0  0  0  0  0  0  0  0  0
   -6.6497  -31.6924  -35.4661 H   0  0  0  0  0  0  0  0  0  0  0  0
   -5.0127  -31.1023  -35.7641 H   0  0  0  0  0  0  0  0  0  0  0  0
   -6.4079  -31.0037  -33.0341 H   0  0  0  0  0  0  0  0  0  0  0  0
   -4.8102  -30.3648  -33.4051 H   0  0  0  0  0  0  0  0  0  0  0  0
   -5.9582  -28.8610  -35.1696 H   0  0  0  0  0  0  0  0  0  0  0  0
   -6.1409  -28.4660  -33.4638 H   0  0  0  0  0  0  0  0  0  0  0  0
   -8.2237  -29.9788  -35.1278 H   0  0  0  0  0  0  0  0  0  0  0  0
   -8.3758  -29.5518  -33.4206 H   0  0  0  0  0  0  0  0  0  0  0  0
   -8.0283  -27.0879  -34.1580 H   0  0  0  0  0  0  0  0  0  0  0  0
   -8.1875  -27.6585  -35.8159 H   0  0  0  0  0  0  0  0  0  0  0  0
  -10.3248  -27.9028  -33.6490 H   0  0  0  0  0  0  0  0  0  0  0  0
  -10.4371  -28.6071  -35.2582 H   0  0  0  0  0  0  0  0  0  0  0  0
  -10.0198  -26.1747  -36.1466 H   0  0  0  0  0  0  0  0  0  0  0  0
  -10.4244  -25.6534  -34.5087 H   0  0  0  0  0  0  0  0  0  0  0  0
  -12.2340  -27.4837  -36.1563 H   0  0  0  0  0  0  0  0  0  0  0  0
  -12.6211  -26.6955  -34.6248 H   0  0  0  0  0  0  0  0  0  0  0  0
  -12.5019  -24.4654  -35.6891 H   0  0  0  0  0  0  0  0  0  0  0  0
  -11.9060  -25.1724  -37.1864 H   0  0  0  0  0  0  0  0  0  0  0  0
  -14.0393  -26.3898  -37.5099 H   0  0  0  0  0  0  0  0  0  0  0  0
  -14.6768  -25.7081  -36.0111 H   0  0  0  0  0  0  0  0  0  0  0  0
  -15.1342  -22.3614  -38.7479 H   0  0  0  0  0  0  0  0  0  0  0  0
  -13.9327  -23.4840  -37.4492 H   0  0  0  0  0  0  0  0  0  0  0  0
  1  2  3  0  0  0  0
  2  5  1  0  0  0  0
  3 17  1  0  0  0  0
  3 18  1  0  0  0  0
  3 19  2  0  0  0  0
  4  6  1  0  0  0  0
  5 17  1  0  0  0  0
  6  7  1  0  0  0  0
  7  8  1  0  0  0  0
  8  9  1  0  0  0  0
  9 10  1  0  0  0  0
 10 11  1  0  0  0  0
 11 12  1  0  0  0  0
 12 13  1  0  0  0  0
 13 14  1  0  0  0  0
 14 15  1  0  0  0  0
 15 16  1  0  0  0  0
 16 18  1  0  0  0  0
  1 20  1  0  0  0  0
  4 21  1  0  0  0  0
  4 22  1  0  0  0  0
  4 23  1  0  0  0  0
  5 24  1  0  0  0  0
  5 25  1  0  0  0  0
  6 26  1  0  0  0  0
  6 27  1  0  0  0  0
  7 28  1  0  0  0  0
  7 29  1  0  0  0  0
  8 30  1  0  0  0  0
  8 31  1  0  0  0  0
  9 32  1  0  0  0  0
  9 33  1  0  0  0  0
 10 34  1  0  0  0  0
 10 35  1  0  0  0  0
 11 36  1  0  0  0  0
 11 37  1  0  0  0  0
 12 38  1  0  0  0  0
 12 39  1  0  0  0  0
 13 40  1  0  0  0  0
 13 41  1  0  0  0  0
 14 42  1  0  0  0  0
 14 43  1  0  0  0  0
 15 44  1  0  0  0  0
 15 45  1  0  0  0  0
 16 46  1  0  0  0  0
 16 47  1  0  0  0  0
 17 48  1  0  0  0  0
 18 49  1  0  0  0  0
M  END
> <Name>
IA_91.cdx

> <SourceTag>
IA_91

> <Gold.Version>
5.2

> <Gold.Id.Protein>
6HGV|6HGV_protein|mol2

> <Gold.Goldscore.Fitness>
57.6966

> <Gold.Goldscore.Internal.Vdw>
-6.7796

> <Gold.Goldscore.Internal.Torsion>
-3.4931

> <Gold.Goldscore.External.Vdw>
43.6498

> <Gold.Goldscore.Internal.HBond>
0.0000

> <Gold.Goldscore.External.HBond>
2.2841

> <Gold.Goldscore.Internal.Correction>
-5.6667

> <Gold.Goldscore.Hbonds>
donor molecule, donor type, donor heavy atom, donor atom, acceptor molecule, acceptor atom, score
      L1  H    17    48       P1   302  0.05
      L1  H    18    49       P1   854  0.36

> <Gold.Goldscore.Internal.Vdw.Weighted>
-6.7796

> <Gold.Goldscore.Internal.Torsion.Weighted>
-3.4931

> <Gold.Goldscore.External.Vdw.Weighted>
60.0185

> <Gold.Goldscore.Internal.HBond.Weighted>
0.0000

> <Gold.Goldscore.External.HBond.Weighted>
2.2841

> <Gold.Goldscore.Internal.Correction.Weighted>
-5.6667

> <Gold.Protein.RotatedTorsions>
[ 3781 1176 1175 1172 ] final  176.43 input   60.00 | X-H torsion
[ 3847 1247 1246 1244 ] final  -45.64 input   60.00 | X-H torsion
[ 4507 1931 1930 1928 ] final -114.02 input   60.00 | X-H torsion
[ 3677 1070 1069 1066 ] final -101.50 input   60.00 | X-H torsion
[ 3525  925  924  922 ] final   38.55 input   59.99 | X-H torsion
[ 4531 1957 1955 1953 ] final   99.35 input   60.00 | X-H torsion

> <Gold.Protein.ActiveResidues>
 PHE267  PRO268  MET310  ASP335  TRP336  MET339  TYR343  THR360  PRO361  ILE363 
 PRO371  SER374  ILE375  ASN378  PHE381  TYR383  GLN384  PHE387  LEU408  LEU417 
 MET419  LEU428  TYR466  MET469  ASN472  ASP496  VAL498  LEU499  MET503  HIS524 
 TRP525 

> <Gold.Protein.RotatedAtoms>
   -3.1242  -29.7193  -30.8337 H   0  0  0  0  0  0  0  0  0  0  0  0  # atno 3525 bound_to 925 
  -11.7132  -23.7436  -31.4216 H   0  0  0  0  0  0  0  0  0  0  0  0  # atno 3677 bound_to 1070
   -9.2866  -36.5489  -32.8115 H   0  0  0  0  0  0  0  0  0  0  0  0  # atno 3781 bound_to 1176
  -16.0589  -28.0889  -37.1586 H   0  0  0  0  0  0  0  0  0  0  0  0  # atno 3847 bound_to 1247
  -13.5351  -24.5741  -40.4456 H   0  0  0  0  0  0  0  0  0  0  0  0  # atno 4507 bound_to 1931
   -2.6825  -33.9165  -36.7467 H   0  0  0  0  0  0  0  0  0  0  0  0  # atno 4531 bound_to 1957
  -10.6433  -37.4474  -32.8214 LP  0  0  0  0  0  0  0  0  0  0  0  0  # atno 5205 bound_to 1176
  -10.1861  -36.6392  -34.1646 LP  0  0  0  0  0  0  0  0  0  0  0  0  # atno 5206 bound_to 1176
  -14.8578  -27.3050  -37.9272 LP  0  0  0  0  0  0  0  0  0  0  0  0  # atno 5215 bound_to 1247
  -14.6416  -28.8432  -37.4236 LP  0  0  0  0  0  0  0  0  0  0  0  0  # atno 5216 bound_to 1247
  -12.4605  -23.8819  -39.4386 LP  0  0  0  0  0  0  0  0  0  0  0  0  # atno 5217 bound_to 1931
  -13.1958  -25.2781  -39.0183 LP  0  0  0  0  0  0  0  0  0  0  0  0  # atno 5218 bound_to 1931
  -11.3496  -22.2940  -30.7778 LP  0  0  0  0  0  0  0  0  0  0  0  0  # atno 5224 bound_to 1070
  -12.7930  -22.9907  -30.4649 LP  0  0  0  0  0  0  0  0  0  0  0  0  # atno 5225 bound_to 1070

$$$$
IA_128.cdx|SeH_inactivess_minimized|sdf|29|dock6
  -GOLD-   4172119103D 1   1.00000     0.00000

 38 38  0  0  0  0  0  0  0  0  1 V2000
  -10.1450  -26.7962  -33.9815 C   0  0  0  0  0  0  0  0  0  0  0  0
  -12.1861  -28.0445  -34.3175 C   0  0  0  0  0  0  0  0  0  0  0  0
  -10.5642  -25.8570  -34.9236 C   0  0  0  0  0  0  0  0  0  0  0  0
  -12.6053  -27.1052  -35.2596 C   0  0  0  0  0  0  0  0  0  0  0  0
  -10.9559  -27.8900  -33.6783 C   0  0  0  0  0  0  0  0  0  0  0  0
  -11.7944  -26.0115  -35.5627 C   0  0  0  0  0  0  0  0  0  0  0  0
   -9.3563  -29.6116  -32.9303 C   0  0  0  0  0  0  0  0  0  0  0  0
  -11.2945  -29.0642  -31.4824 C   0  0  0  0  0  0  0  0  0  0  0  0
   -9.7799  -29.4284  -35.4112 C   0  0  0  0  0  0  0  0  0  0  0  0
   -5.0912  -31.4833  -35.3728 C   0  0  0  0  0  0  0  0  0  0  0  0
   -7.7798  -33.4658  -36.0546 C   0  0  0  0  0  0  0  0  0  0  0  0
   -7.5407  -30.0624  -34.5860 C   0  0  0  0  0  0  0  0  0  0  0  0
   -7.3549  -31.5782  -34.6696 C   0  0  0  0  0  0  0  0  0  0  0  0
  -10.5277  -28.8493  -32.7155 N   0  0  0  0  0  0  0  0  0  0  0  0
   -8.8979  -29.7003  -34.2685 N   0  0  0  0  0  0  0  0  0  0  0  0
   -8.7722  -30.1991  -32.0115 O   0  0  0  0  0  0  0  0  0  0  0  0
   -5.9888  -31.8664  -34.3394 O   0  0  0  0  0  0  0  0  0  0  0  0
   -7.6935  -32.0497  -35.9772 O   0  0  0  0  0  0  0  0  0  0  0  0
  -12.3117  -24.8523  -36.7253 Cl  0  0  0  0  0  0  0  0  0  0  0  0
   -9.1844  -26.6663  -33.4896 H   0  0  0  0  0  0  0  0  0  0  0  0
  -12.8259  -28.8929  -34.0889 H   0  0  0  0  0  0  0  0  0  0  0  0
   -9.9224  -25.0095  -35.1499 H   0  0  0  0  0  0  0  0  0  0  0  0
  -13.5662  -27.2381  -35.7500 H   0  0  0  0  0  0  0  0  0  0  0  0
  -11.9378  -29.9417  -31.5881 H   0  0  0  0  0  0  0  0  0  0  0  0
  -11.9199  -28.1929  -31.2696 H   0  0  0  0  0  0  0  0  0  0  0  0
  -10.6172  -29.2238  -30.6391 H   0  0  0  0  0  0  0  0  0  0  0  0
  -10.8070  -29.7135  -35.1691 H   0  0  0  0  0  0  0  0  0  0  0  0
   -9.4531  -29.9984  -36.2850 H   0  0  0  0  0  0  0  0  0  0  0  0
   -9.7594  -28.3638  -35.6595 H   0  0  0  0  0  0  0  0  0  0  0  0
   -4.0698  -31.7432  -35.0841 H   0  0  0  0  0  0  0  0  0  0  0  0
   -5.1700  -30.4069  -35.5446 H   0  0  0  0  0  0  0  0  0  0  0  0
   -5.3554  -32.0168  -36.2890 H   0  0  0  0  0  0  0  0  0  0  0  0
   -6.8644  -33.9099  -35.6560 H   0  0  0  0  0  0  0  0  0  0  0  0
   -7.9200  -33.7669  -37.0958 H   0  0  0  0  0  0  0  0  0  0  0  0
   -8.6336  -33.8028  -35.4619 H   0  0  0  0  0  0  0  0  0  0  0  0
   -6.9080  -29.6224  -33.8102 H   0  0  0  0  0  0  0  0  0  0  0  0
   -7.3049  -29.5909  -35.5453 H   0  0  0  0  0  0  0  0  0  0  0  0
   -7.9943  -32.0539  -33.9140 H   0  0  0  0  0  0  0  0  0  0  0  0
  1  3  1  0  0  0  0
  1  5  2  0  0  0  0
  2  4  2  0  0  0  0
  2  5  1  0  0  0  0
  3  6  2  0  0  0  0
  4  6  1  0  0  0  0
  5 14  1  0  0  0  0
  6 19  1  0  0  0  0
  7 14  1  0  0  0  0
  7 15  1  0  0  0  0
  7 16  2  0  0  0  0
  8 14  1  0  0  0  0
  9 15  1  0  0  0  0
 10 17  1  0  0  0  0
 11 18  1  0  0  0  0
 12 13  1  0  0  0  0
 12 15  1  0  0  0  0
 13 17  1  0  0  0  0
 13 18  1  0  0  0  0
  1 20  1  0  0  0  0
  2 21  1  0  0  0  0
  3 22  1  0  0  0  0
  4 23  1  0  0  0  0
  8 24  1  0  0  0  0
  8 25  1  0  0  0  0
  8 26  1  0  0  0  0
  9 27  1  0  0  0  0
  9 28  1  0  0  0  0
  9 29  1  0  0  0  0
 10 30  1  0  0  0  0
 10 31  1  0  0  0  0
 10 32  1  0  0  0  0
 11 33  1  0  0  0  0
 11 34  1  0  0  0  0
 11 35  1  0  0  0  0
 12 36  1  0  0  0  0
 12 37  1  0  0  0  0
 13 38  1  0  0  0  0
M  END
> <Name>
IA_128.cdx

> <SourceTag>
IA_128

> <Gold.Version>
5.2

> <Gold.Id.Protein>
6HGV|6HGV_protein|mol2

> <Gold.Goldscore.Fitness>
46.2466

> <Gold.Goldscore.Internal.Vdw>
-10.7317

> <Gold.Goldscore.Internal.Torsion>
-14.5563

> <Gold.Goldscore.External.Vdw>
34.1473

> <Gold.Goldscore.Internal.HBond>
0.0000

> <Gold.Goldscore.External.HBond>
0.0000

> <Gold.Goldscore.Internal.Correction>
-24.5820

> <Gold.Goldscore.Internal.Vdw.Weighted>
-10.7317

> <Gold.Goldscore.Internal.Torsion.Weighted>
-14.5563

> <Gold.Goldscore.External.Vdw.Weighted>
46.9525

> <Gold.Goldscore.Internal.HBond.Weighted>
0.0000

> <Gold.Goldscore.External.HBond.Weighted>
0.0000

> <Gold.Goldscore.Internal.Correction.Weighted>
-24.5820

> <Gold.Protein.RotatedTorsions>
[ 3781 1176 1175 1172 ] final  -45.16 input   60.00 | X-H torsion
[ 3847 1247 1246 1244 ] final  -33.01 input   60.00 | X-H torsion
[ 4507 1931 1930 1928 ] final  -30.73 input   60.00 | X-H torsion
[ 3677 1070 1069 1066 ] final  -98.78 input   60.00 | X-H torsion
[ 3525  925  924  922 ] final  -50.28 input   59.99 | X-H torsion
[ 4531 1957 1955 1953 ] final  -73.92 input   60.00 | X-H torsion

> <Gold.Protein.ActiveResidues>
 PHE267  PRO268  MET310  ASP335  TRP336  MET339  TYR343  THR360  PRO361  ILE363 
 PRO371  SER374  ILE375  ASN378  PHE381  TYR383  GLN384  PHE387  LEU408  LEU417 
 MET419  LEU428  TYR466  MET469  ASN472  ASP496  VAL498  LEU499  MET503  HIS524 
 TRP525 

> <Gold.Protein.RotatedAtoms>
   -3.7504  -29.5505  -29.6951 H   0  0  0  0  0  0  0  0  0  0  0  0  # atno 3525 bound_to 925 
  -11.7527  -23.7618  -31.4125 H   0  0  0  0  0  0  0  0  0  0  0  0  # atno 3677 bound_to 1070
  -10.4226  -36.8183  -34.1158 H   0  0  0  0  0  0  0  0  0  0  0  0  # atno 3781 bound_to 1176
  -16.0107  -28.2815  -37.1038 H   0  0  0  0  0  0  0  0  0  0  0  0  # atno 3847 bound_to 1247
  -13.5374  -25.3733  -39.4919 H   0  0  0  0  0  0  0  0  0  0  0  0  # atno 4507 bound_to 1931
   -1.7693  -32.2918  -36.8922 H   0  0  0  0  0  0  0  0  0  0  0  0  # atno 4531 bound_to 1957
   -9.2378  -36.4143  -33.0759 LP  0  0  0  0  0  0  0  0  0  0  0  0  # atno 5205 bound_to 1176
  -10.4476  -37.4009  -32.5966 LP  0  0  0  0  0  0  0  0  0  0  0  0  # atno 5206 bound_to 1176
  -15.0454  -27.2283  -37.8828 LP  0  0  0  0  0  0  0  0  0  0  0  0  # atno 5215 bound_to 1247
  -14.5025  -28.7258  -37.5231 LP  0  0  0  0  0  0  0  0  0  0  0  0  # atno 5216 bound_to 1247
  -13.1924  -24.0920  -40.4338 LP  0  0  0  0  0  0  0  0  0  0  0  0  # atno 5217 bound_to 1931
  -12.4616  -24.2632  -38.9835 LP  0  0  0  0  0  0  0  0  0  0  0  0  # atno 5218 bound_to 1931
  -11.3206  -22.3156  -30.8043 LP  0  0  0  0  0  0  0  0  0  0  0  0  # atno 5224 bound_to 1070
  -12.7821  -22.9509  -30.4476 LP  0  0  0  0  0  0  0  0  0  0  0  0  # atno 5225 bound_to 1070

$$$$
IA_78.cdx|SeH_inactivess_minimized|sdf|155|dock9
  -GOLD-   4172122123D 1   1.00000     0.00000

 31 30  0  0  0  0  0  0  0  0  1 V2000
   -9.8889  -27.0086  -35.3495 C   0  0  0  0  0  0  0  0  0  0  0  0
   -4.0577  -28.4131  -33.7169 C   0  0  0  0  0  0  0  0  0  0  0  0
   -7.2172  -33.2562  -35.8018 C   0  0  0  0  0  0  0  0  0  0  0  0
  -11.0287  -24.8344  -34.9013 C   0  0  0  0  0  0  0  0  0  0  0  0
   -8.4443  -29.0329  -35.4861 C   0  0  0  0  0  0  0  0  0  0  0  0
   -5.2081  -29.3967  -33.7490 C   0  0  0  0  0  0  0  0  0  0  0  0
   -7.8048  -32.0361  -35.1255 C   0  0  0  0  0  0  0  0  0  0  0  0
   -7.3710  -29.7432  -34.6597 C   0  0  0  0  0  0  0  0  0  0  0  0
   -9.9648  -25.7876  -34.6848 N   0  0  0  0  0  0  0  0  0  0  0  0
   -8.7649  -27.7336  -34.9544 N   0  0  0  0  0  0  0  0  0  0  0  0
  -10.7071  -27.4009  -36.1804 O   0  0  0  0  0  0  0  0  0  0  0  0
   -6.2920  -28.8182  -34.4637 O   0  0  0  0  0  0  0  0  0  0  0  0
   -6.9345  -30.9310  -35.3268 O   0  0  0  0  0  0  0  0  0  0  0  0
   -3.2262  -28.8044  -33.1243 H   0  0  0  0  0  0  0  0  0  0  0  0
   -3.7012  -28.2030  -34.7307 H   0  0  0  0  0  0  0  0  0  0  0  0
   -4.3786  -27.4581  -33.2880 H   0  0  0  0  0  0  0  0  0  0  0  0
   -6.1808  -33.4139  -35.4904 H   0  0  0  0  0  0  0  0  0  0  0  0
   -7.7996  -34.1508  -35.5580 H   0  0  0  0  0  0  0  0  0  0  0  0
   -7.2457  -33.1449  -36.8910 H   0  0  0  0  0  0  0  0  0  0  0  0
  -10.8282  -24.2453  -35.7998 H   0  0  0  0  0  0  0  0  0  0  0  0
  -11.1087  -24.1569  -34.0468 H   0  0  0  0  0  0  0  0  0  0  0  0
  -11.9822  -25.3544  -35.0268 H   0  0  0  0  0  0  0  0  0  0  0  0
   -8.1195  -28.8790  -36.5188 H   0  0  0  0  0  0  0  0  0  0  0  0
   -9.3742  -29.6104  -35.4894 H   0  0  0  0  0  0  0  0  0  0  0  0
   -5.5407  -29.6313  -32.7334 H   0  0  0  0  0  0  0  0  0  0  0  0
   -4.9086  -30.3216  -34.2507 H   0  0  0  0  0  0  0  0  0  0  0  0
   -7.9130  -32.2081  -34.0504 H   0  0  0  0  0  0  0  0  0  0  0  0
   -8.7839  -31.7957  -35.5503 H   0  0  0  0  0  0  0  0  0  0  0  0
   -7.7900  -29.9896  -33.6749 H   0  0  0  0  0  0  0  0  0  0  0  0
   -9.2372  -25.5557  -34.0157 H   0  0  0  0  0  0  0  0  0  0  0  0
   -8.1199  -27.3063  -34.2943 H   0  0  0  0  0  0  0  0  0  0  0  0
  1  9  1  0  0  0  0
  1 10  1  0  0  0  0
  1 11  2  0  0  0  0
  2  6  1  0  0  0  0
  3  7  1  0  0  0  0
  4  9  1  0  0  0  0
  5  8  1  0  0  0  0
  5 10  1  0  0  0  0
  6 12  1  0  0  0  0
  7 13  1  0  0  0  0
  8 12  1  0  0  0  0
  8 13  1  0  0  0  0
  2 14  1  0  0  0  0
  2 15  1  0  0  0  0
  2 16  1  0  0  0  0
  3 17  1  0  0  0  0
  3 18  1  0  0  0  0
  3 19  1  0  0  0  0
  4 20  1  0  0  0  0
  4 21  1  0  0  0  0
  4 22  1  0  0  0  0
  5 23  1  0  0  0  0
  5 24  1  0  0  0  0
  6 25  1  0  0  0  0
  6 26  1  0  0  0  0
  7 27  1  0  0  0  0
  7 28  1  0  0  0  0
  8 29  1  0  0  0  0
  9 30  1  0  0  0  0
 10 31  1  0  0  0  0
M  END
> <Name>
IA_78.cdx

> <SourceTag>
IA_78

> <Gold.Version>
5.2

> <Gold.Id.Protein>
6HGV|6HGV_protein|mol2

> <Gold.Goldscore.Fitness>
41.2654

> <Gold.Goldscore.Internal.Vdw>
-4.6984

> <Gold.Goldscore.Internal.Torsion>
-2.6303

> <Gold.Goldscore.External.Vdw>
30.9691

> <Gold.Goldscore.Internal.HBond>
0.0000

> <Gold.Goldscore.External.HBond>
0.0000

> <Gold.Goldscore.Internal.Correction>
-6.0116

> <Gold.Goldscore.Internal.Vdw.Weighted>
-4.6984

> <Gold.Goldscore.Internal.Torsion.Weighted>
-2.6303

> <Gold.Goldscore.External.Vdw.Weighted>
42.5826

> <Gold.Goldscore.Internal.HBond.Weighted>
0.0000

> <Gold.Goldscore.External.HBond.Weighted>
0.0000

> <Gold.Goldscore.Internal.Correction.Weighted>
-6.0116

> <Gold.Protein.RotatedTorsions>
[ 3781 1176 1175 1172 ] final  -95.31 input   60.00 | X-H torsion
[ 3847 1247 1246 1244 ] final   24.61 input   60.00 | X-H torsion
[ 4507 1931 1930 1928 ] final   34.29 input   60.00 | X-H torsion
[ 3677 1070 1069 1066 ] final  -94.71 input   60.00 | X-H torsion
[ 3525  925  924  922 ] final   75.06 input   59.99 | X-H torsion
[ 4531 1957 1955 1953 ] final   25.55 input   60.00 | X-H torsion

> <Gold.Protein.ActiveResidues>
 PHE267  PRO268  MET310  ASP335  TRP336  MET339  TYR343  THR360  PRO361  ILE363 
 PRO371  SER374  ILE375  ASN378  PHE381  TYR383  GLN384  PHE387  LEU408  LEU417 
 MET419  LEU428  TYR466  MET469  ASN472  ASP496  VAL498  LEU499  MET503  HIS524 
 TRP525 

> <Gold.Protein.RotatedAtoms>
   -2.5875  -29.9551  -30.8135 H   0  0  0  0  0  0  0  0  0  0  0  0  # atno 3525 bound_to 925 
  -11.8128  -23.7858  -31.3966 H   0  0  0  0  0  0  0  0  0  0  0  0  # atno 3677 bound_to 1070
   -9.7513  -36.4058  -34.0213 H   0  0  0  0  0  0  0  0  0  0  0  0  # atno 3781 bound_to 1176
  -15.3661  -28.9127  -37.1153 H   0  0  0  0  0  0  0  0  0  0  0  0  # atno 3847 bound_to 1247
  -12.8841  -25.0034  -38.8219 H   0  0  0  0  0  0  0  0  0  0  0  0  # atno 4507 bound_to 1931
   -3.0588  -32.8607  -36.6569 H   0  0  0  0  0  0  0  0  0  0  0  0  # atno 4531 bound_to 1957
   -9.5343  -36.8398  -32.4680 LP  0  0  0  0  0  0  0  0  0  0  0  0  # atno 5205 bound_to 1176
  -10.8271  -37.3908  -33.2997 LP  0  0  0  0  0  0  0  0  0  0  0  0  # atno 5206 bound_to 1176
  -15.8493  -27.4070  -37.4990 LP  0  0  0  0  0  0  0  0  0  0  0  0  # atno 5215 bound_to 1247
  -14.3477  -27.9115  -37.8953 LP  0  0  0  0  0  0  0  0  0  0  0  0  # atno 5216 bound_to 1247
  -13.6847  -24.9557  -40.2378 LP  0  0  0  0  0  0  0  0  0  0  0  0  # atno 5217 bound_to 1931
  -12.6272  -23.7720  -39.8542 LP  0  0  0  0  0  0  0  0  0  0  0  0  # atno 5218 bound_to 1931
  -11.2800  -22.3508  -30.8443 LP  0  0  0  0  0  0  0  0  0  0  0  0  # atno 5224 bound_to 1070
  -12.7623  -22.8915  -30.4235 LP  0  0  0  0  0  0  0  0  0  0  0  0  # atno 5225 bound_to 1070

$$$$
IA_130.cdx|SeH_inactivess_minimized|sdf|32|dock6
  -GOLD-   4172119163D 1   1.00000     0.00000

 30 30  0  0  0  0  0  0  0  0  1 V2000
  -16.7419  -23.4627  -38.5222 C   0  0  0  0  0  0  0  0  0  0  0  0
  -18.0845  -23.0932  -38.6038 C   0  0  0  0  0  0  0  0  0  0  0  0
  -17.2336  -24.8215  -36.5859 C   0  0  0  0  0  0  0  0  0  0  0  0
  -16.3165  -24.3269  -37.5132 C   0  0  0  0  0  0  0  0  0  0  0  0
  -19.0015  -23.5879  -37.6765 C   0  0  0  0  0  0  0  0  0  0  0  0
  -18.5761  -24.4521  -36.6676 C   0  0  0  0  0  0  0  0  0  0  0  0
   -9.1245  -26.2206  -34.3233 C   0  0  0  0  0  0  0  0  0  0  0  0
  -14.2797  -25.2458  -36.3352 C   0  0  0  0  0  0  0  0  0  0  0  0
  -10.3659  -25.5309  -33.8015 C   0  0  0  0  0  0  0  0  0  0  0  0
  -11.2575  -24.9693  -34.9121 C   0  0  0  0  0  0  0  0  0  0  0  0
  -11.9883  -26.0370  -35.7251 C   0  0  0  0  0  0  0  0  0  0  0  0
  -14.9552  -24.7018  -37.4312 N   0  0  0  0  0  0  0  0  0  0  0  0
  -12.9342  -25.4809  -36.6539 N   0  0  0  0  0  0  0  0  0  0  0  0
   -7.9824  -25.7926  -34.2341 O   0  0  0  0  0  0  0  0  0  0  0  0
  -14.7577  -25.4983  -35.2318 O   0  0  0  0  0  0  0  0  0  0  0  0
   -9.4246  -27.4151  -34.8980 O   0  0  0  0  0  0  0  0  0  0  0  0
  -20.6501  -23.0905  -37.8288 Cl  0  0  0  0  0  0  0  0  0  0  0  0
  -19.6641  -25.0962  -35.4884 Cl  0  0  0  0  0  0  0  0  0  0  0  0
  -16.0358  -23.0728  -39.2507 H   0  0  0  0  0  0  0  0  0  0  0  0
  -18.3985  -22.4200  -39.3976 H   0  0  0  0  0  0  0  0  0  0  0  0
  -16.8955  -25.4943  -35.8003 H   0  0  0  0  0  0  0  0  0  0  0  0
  -10.9291  -26.2328  -33.1784 H   0  0  0  0  0  0  0  0  0  0  0  0
  -10.0297  -24.7008  -33.1693 H   0  0  0  0  0  0  0  0  0  0  0  0
  -11.9962  -24.2960  -34.4593 H   0  0  0  0  0  0  0  0  0  0  0  0
  -10.6500  -24.3626  -35.5947 H   0  0  0  0  0  0  0  0  0  0  0  0
  -12.5259  -26.7429  -35.0861 H   0  0  0  0  0  0  0  0  0  0  0  0
  -11.2629  -26.6037  -36.3180 H   0  0  0  0  0  0  0  0  0  0  0  0
  -14.4057  -24.5568  -38.2746 H   0  0  0  0  0  0  0  0  0  0  0  0
  -12.6110  -25.2456  -37.5906 H   0  0  0  0  0  0  0  0  0  0  0  0
   -8.6493  -27.9455  -35.1818 H   0  0  0  0  0  0  0  0  0  0  0  0
  1  2  1  0  0  0  0
  1  4  2  0  0  0  0
  2  5  2  0  0  0  0
  3  4  1  0  0  0  0
  3  6  2  0  0  0  0
  4 12  1  0  0  0  0
  5  6  1  0  0  0  0
  5 17  1  0  0  0  0
  6 18  1  0  0  0  0
  7  9  1  0  0  0  0
  7 14  2  0  0  0  0
  7 16  1  0  0  0  0
  8 12  1  0  0  0  0
  8 13  1  0  0  0  0
  8 15  2  0  0  0  0
  9 10  1  0  0  0  0
 10 11  1  0  0  0  0
 11 13  1  0  0  0  0
  1 19  1  0  0  0  0
  2 20  1  0  0  0  0
  3 21  1  0  0  0  0
  9 22  1  0  0  0  0
  9 23  1  0  0  0  0
 10 24  1  0  0  0  0
 10 25  1  0  0  0  0
 11 26  1  0  0  0  0
 11 27  1  0  0  0  0
 12 28  1  0  0  0  0
 13 29  1  0  0  0  0
 16 30  1  0  0  0  0
M  END
> <Name>
IA_130.cdx

> <SourceTag>
IA_130

> <Gold.Version>
5.2

> <Gold.Id.Protein>
6HGV|6HGV_protein|mol2

> <Gold.Goldscore.Fitness>
57.7999

> <Gold.Goldscore.Internal.Vdw>
-2.9837

> <Gold.Goldscore.Internal.Torsion>
-2.2392

> <Gold.Goldscore.External.Vdw>
42.0586

> <Gold.Goldscore.Internal.HBond>
0.0000

> <Gold.Goldscore.External.HBond>
2.4417

> <Gold.Goldscore.Internal.Correction>
-2.7504

> <Gold.Goldscore.Hbonds>
donor molecule, donor type, donor heavy atom, donor atom, acceptor molecule, acceptor atom, score
      L1  H    12    28       P1  1931  0.71
      L1  H    13    29       P1  1931  0.51

> <Gold.Goldscore.Internal.Vdw.Weighted>
-2.9837

> <Gold.Goldscore.Internal.Torsion.Weighted>
-2.2392

> <Gold.Goldscore.External.Vdw.Weighted>
57.8306

> <Gold.Goldscore.Internal.HBond.Weighted>
0.0000

> <Gold.Goldscore.External.HBond.Weighted>
2.4417

> <Gold.Goldscore.Internal.Correction.Weighted>
-2.7504

> <Gold.Protein.RotatedTorsions>
[ 3781 1176 1175 1172 ] final   25.98 input   60.00 | X-H torsion
[ 3847 1247 1246 1244 ] final  -80.99 input   60.00 | X-H torsion
[ 4507 1931 1930 1928 ] final  173.58 input   60.00 | X-H torsion
[ 3677 1070 1069 1066 ] final -102.20 input   60.00 | X-H torsion
[ 3525  925  924  922 ] final  -93.37 input   59.99 | X-H torsion
[ 4531 1957 1955 1953 ] final  -64.12 input   60.00 | X-H torsion

> <Gold.Protein.ActiveResidues>
 PHE267  PRO268  MET310  ASP335  TRP336  MET339  TYR343  THR360  PRO361  ILE363 
 PRO371  SER374  ILE375  ASN378  PHE381  TYR383  GLN384  PHE387  LEU408  LEU417 
 MET419  LEU428  TYR466  MET469  ASN472  ASP496  VAL498  LEU499  MET503  HIS524 
 TRP525 

> <Gold.Protein.RotatedAtoms>
   -3.3926  -29.7567  -29.1453 H   0  0  0  0  0  0  0  0  0  0  0  0  # atno 3525 bound_to 925 
  -11.7032  -23.7388  -31.4237 H   0  0  0  0  0  0  0  0  0  0  0  0  # atno 3677 bound_to 1070
  -10.8173  -37.3946  -33.2802 H   0  0  0  0  0  0  0  0  0  0  0  0  # atno 3781 bound_to 1176
  -15.9702  -27.5769  -37.3892 H   0  0  0  0  0  0  0  0  0  0  0  0  # atno 3847 bound_to 1247
  -12.8045  -23.8144  -40.1110 H   0  0  0  0  0  0  0  0  0  0  0  0  # atno 4507 bound_to 1931
   -1.9155  -32.2336  -36.8634 H   0  0  0  0  0  0  0  0  0  0  0  0  # atno 4531 bound_to 1957
   -9.7674  -36.4078  -34.0365 LP  0  0  0  0  0  0  0  0  0  0  0  0  # atno 5205 bound_to 1176
   -9.5205  -36.8270  -32.4776 LP  0  0  0  0  0  0  0  0  0  0  0  0  # atno 5206 bound_to 1176
  -14.4434  -27.6999  -37.9387 LP  0  0  0  0  0  0  0  0  0  0  0  0  # atno 5215 bound_to 1247
  -15.1453  -28.9639  -37.1797 LP  0  0  0  0  0  0  0  0  0  0  0  0  # atno 5216 bound_to 1247
  -12.6931  -24.7554  -38.7881 LP  0  0  0  0  0  0  0  0  0  0  0  0  # atno 5217 bound_to 1931
  -13.6991  -25.1697  -40.0058 LP  0  0  0  0  0  0  0  0  0  0  0  0  # atno 5218 bound_to 1931
  -11.3572  -22.2888  -30.7711 LP  0  0  0  0  0  0  0  0  0  0  0  0  # atno 5224 bound_to 1070
  -12.7954  -23.0008  -30.4695 LP  0  0  0  0  0  0  0  0  0  0  0  0  # atno 5225 bound_to 1070

$$$$
IA_90.cdx|SeH_inactivess_minimized|sdf|169|dock1
  -GOLD-   41821 8223D 1   1.00000     0.00000

 51 50  0  0  0  0  0  0  0  0  1 V2000
  -17.0779  -22.7048  -40.9779 C   0  0  0  0  0  0  0  0  0  0  0  0
  -16.5539  -23.6930  -40.2440 C   0  0  0  0  0  0  0  0  0  0  0  0
  -15.2790  -25.1766  -37.7090 C   0  0  0  0  0  0  0  0  0  0  0  0
   -3.6944  -32.7596  -32.7731 C   0  0  0  0  0  0  0  0  0  0  0  0
  -17.1923  -24.2433  -39.0110 C   0  0  0  0  0  0  0  0  0  0  0  0
   -3.3908  -32.1121  -34.1148 C   0  0  0  0  0  0  0  0  0  0  0  0
   -4.6684  -31.8571  -34.9161 C   0  0  0  0  0  0  0  0  0  0  0  0
   -5.5208  -30.7654  -34.2657 C   0  0  0  0  0  0  0  0  0  0  0  0
   -6.7023  -30.3186  -35.1318 C   0  0  0  0  0  0  0  0  0  0  0  0
   -7.6001  -29.2831  -34.4492 C   0  0  0  0  0  0  0  0  0  0  0  0
   -8.7199  -28.8220  -35.3860 C   0  0  0  0  0  0  0  0  0  0  0  0
   -9.4198  -27.5436  -34.9159 C   0  0  0  0  0  0  0  0  0  0  0  0
  -10.5763  -27.1147  -35.8216 C   0  0  0  0  0  0  0  0  0  0  0  0
  -10.9204  -25.6367  -35.6188 C   0  0  0  0  0  0  0  0  0  0  0  0
  -12.0452  -25.1952  -36.5604 C   0  0  0  0  0  0  0  0  0  0  0  0
  -13.4177  -25.7313  -36.1495 C   0  0  0  0  0  0  0  0  0  0  0  0
  -16.2360  -24.1897  -37.9294 N   0  0  0  0  0  0  0  0  0  0  0  0
  -14.4991  -24.8673  -36.6068 N   0  0  0  0  0  0  0  0  0  0  0  0
  -15.1464  -26.1849  -38.4016 O   0  0  0  0  0  0  0  0  0  0  0  0
  -16.5682  -22.3528  -41.8681 H   0  0  0  0  0  0  0  0  0  0  0  0
  -18.0155  -22.2320  -40.7069 H   0  0  0  0  0  0  0  0  0  0  0  0
  -15.6142  -24.1362  -40.5644 H   0  0  0  0  0  0  0  0  0  0  0  0
   -2.7671  -33.0839  -32.2903 H   0  0  0  0  0  0  0  0  0  0  0  0
   -4.1983  -32.0559  -32.1028 H   0  0  0  0  0  0  0  0  0  0  0  0
   -4.3375  -33.6366  -32.8976 H   0  0  0  0  0  0  0  0  0  0  0  0
  -17.4807  -25.2858  -39.1769 H   0  0  0  0  0  0  0  0  0  0  0  0
  -18.0863  -23.6831  -38.7190 H   0  0  0  0  0  0  0  0  0  0  0  0
   -2.7173  -32.7637  -34.6837 H   0  0  0  0  0  0  0  0  0  0  0  0
   -2.8622  -31.1665  -33.9467 H   0  0  0  0  0  0  0  0  0  0  0  0
   -5.2394  -32.7897  -34.9844 H   0  0  0  0  0  0  0  0  0  0  0  0
   -4.4070  -31.5597  -35.9386 H   0  0  0  0  0  0  0  0  0  0  0  0
   -5.8888  -31.1128  -33.2926 H   0  0  0  0  0  0  0  0  0  0  0  0
   -4.8909  -29.8887  -34.0699 H   0  0  0  0  0  0  0  0  0  0  0  0
   -7.2977  -31.1934  -35.4201 H   0  0  0  0  0  0  0  0  0  0  0  0
   -6.3026  -29.8894  -36.0590 H   0  0  0  0  0  0  0  0  0  0  0  0
   -8.0441  -29.7101  -33.5432 H   0  0  0  0  0  0  0  0  0  0  0  0
   -6.9897  -28.4263  -34.1436 H   0  0  0  0  0  0  0  0  0  0  0  0
   -8.3197  -28.6711  -36.3960 H   0  0  0  0  0  0  0  0  0  0  0  0
   -9.4735  -29.6159  -35.4605 H   0  0  0  0  0  0  0  0  0  0  0  0
   -8.6877  -26.7304  -34.8394 H   0  0  0  0  0  0  0  0  0  0  0  0
   -9.8040  -27.7180  -33.9031 H   0  0  0  0  0  0  0  0  0  0  0  0
  -11.4585  -27.7299  -35.6072 H   0  0  0  0  0  0  0  0  0  0  0  0
  -10.3118  -27.2788  -36.8721 H   0  0  0  0  0  0  0  0  0  0  0  0
  -11.2277  -25.4706  -34.5790 H   0  0  0  0  0  0  0  0  0  0  0  0
  -10.0239  -25.0302  -35.7929 H   0  0  0  0  0  0  0  0  0  0  0  0
  -12.0754  -24.0995  -36.6123 H   0  0  0  0  0  0  0  0  0  0  0  0
  -11.8257  -25.5514  -37.5747 H   0  0  0  0  0  0  0  0  0  0  0  0
  -13.5558  -26.7309  -36.5760 H   0  0  0  0  0  0  0  0  0  0  0  0
  -13.4705  -25.8297  -35.0599 H   0  0  0  0  0  0  0  0  0  0  0  0
  -16.2633  -23.3940  -37.2995 H   0  0  0  0  0  0  0  0  0  0  0  0
  -14.6411  -23.9964  -36.1178 H   0  0  0  0  0  0  0  0  0  0  0  0
  1  2  2  0  0  0  0
  2  5  1  0  0  0  0
  3 17  1  0  0  0  0
  3 18  1  0  0  0  0
  3 19  2  0  0  0  0
  4  6  1  0  0  0  0
  5 17  1  0  0  0  0
  6  7  1  0  0  0  0
  7  8  1  0  0  0  0
  8  9  1  0  0  0  0
  9 10  1  0  0  0  0
 10 11  1  0  0  0  0
 11 12  1  0  0  0  0
 12 13  1  0  0  0  0
 13 14  1  0  0  0  0
 14 15  1  0  0  0  0
 15 16  1  0  0  0  0
 16 18  1  0  0  0  0
  1 20  1  0  0  0  0
  1 21  1  0  0  0  0
  2 22  1  0  0  0  0
  4 23  1  0  0  0  0
  4 24  1  0  0  0  0
  4 25  1  0  0  0  0
  5 26  1  0  0  0  0
  5 27  1  0  0  0  0
  6 28  1  0  0  0  0
  6 29  1  0  0  0  0
  7 30  1  0  0  0  0
  7 31  1  0  0  0  0
  8 32  1  0  0  0  0
  8 33  1  0  0  0  0
  9 34  1  0  0  0  0
  9 35  1  0  0  0  0
 10 36  1  0  0  0  0
 10 37  1  0  0  0  0
 11 38  1  0  0  0  0
 11 39  1  0  0  0  0
 12 40  1  0  0  0  0
 12 41  1  0  0  0  0
 13 42  1  0  0  0  0
 13 43  1  0  0  0  0
 14 44  1  0  0  0  0
 14 45  1  0  0  0  0
 15 46  1  0  0  0  0
 15 47  1  0  0  0  0
 16 48  1  0  0  0  0
 16 49  1  0  0  0  0
 17 50  1  0  0  0  0
 18 51  1  0  0  0  0
M  END
> <Name>
IA_90.cdx

> <SourceTag>
IA_90

> <Gold.Version>
5.2

> <Gold.Id.Protein>
6HGV|6HGV_protein|mol2

> <Gold.Goldscore.Fitness>
60.7868

> <Gold.Goldscore.Internal.Vdw>
-6.5341

> <Gold.Goldscore.Internal.Torsion>
-4.6757

> <Gold.Goldscore.External.Vdw>
45.7425

> <Gold.Goldscore.Internal.HBond>
0.0000

> <Gold.Goldscore.External.HBond>
2.2737

> <Gold.Goldscore.Internal.Correction>
-6.8268

> <Gold.Goldscore.Hbonds>
donor molecule, donor type, donor heavy atom, donor atom, acceptor molecule, acceptor atom, score
      P1  H  1931  4507       L1    19  0.07
      L1  H    17    50       P1  2419  0.07
      L1  H    18    51       P1   853  0.33

> <Gold.Goldscore.Internal.Vdw.Weighted>
-6.5341

> <Gold.Goldscore.Internal.Torsion.Weighted>
-4.6757

> <Gold.Goldscore.External.Vdw.Weighted>
62.8960

> <Gold.Goldscore.Internal.HBond.Weighted>
0.0000

> <Gold.Goldscore.External.HBond.Weighted>
2.2737

> <Gold.Goldscore.Internal.Correction.Weighted>
-6.8268

> <Gold.Protein.RotatedTorsions>
[ 3781 1176 1175 1172 ] final -129.36 input   60.00 | X-H torsion
[ 3847 1247 1246 1244 ] final   58.64 input   60.00 | X-H torsion
[ 4507 1931 1930 1928 ] final  -38.32 input   60.00 | X-H torsion
[ 3677 1070 1069 1066 ] final  -86.67 input   60.00 | X-H torsion
[ 3525  925  924  922 ] final   36.04 input   59.99 | X-H torsion
[ 4531 1957 1955 1953 ] final  -69.88 input   60.00 | X-H torsion

> <Gold.Protein.ActiveResidues>
 PHE267  PRO268  MET310  ASP335  TRP336  MET339  TYR343  THR360  PRO361  ILE363 
 PRO371  SER374  ILE375  ASN378  PHE381  TYR383  GLN384  PHE387  LEU408  LEU417 
 MET419  LEU428  TYR466  MET469  ASN472  ASP496  VAL498  LEU499  MET503  HIS524 
 TRP525 

> <Gold.Protein.RotatedAtoms>
   -3.1605  -29.7046  -30.8214 H   0  0  0  0  0  0  0  0  0  0  0  0  # atno 3525 bound_to 925 
  -11.9329  -23.8215  -31.3579 H   0  0  0  0  0  0  0  0  0  0  0  0  # atno 3677 bound_to 1070
   -9.3851  -36.3101  -33.6246 H   0  0  0  0  0  0  0  0  0  0  0  0  # atno 3781 bound_to 1176
  -14.8540  -28.9319  -37.3090 H   0  0  0  0  0  0  0  0  0  0  0  0  # atno 3847 bound_to 1247
  -13.5887  -25.3533  -39.6031 H   0  0  0  0  0  0  0  0  0  0  0  0  # atno 4507 bound_to 1931
   -1.8284  -32.2647  -36.8805 H   0  0  0  0  0  0  0  0  0  0  0  0  # atno 4531 bound_to 1957
   -9.9687  -37.1663  -32.3698 LP  0  0  0  0  0  0  0  0  0  0  0  0  # atno 5205 bound_to 1176
  -10.7616  -37.1607  -33.7974 LP  0  0  0  0  0  0  0  0  0  0  0  0  # atno 5206 bound_to 1176
  -16.0653  -27.8471  -37.2458 LP  0  0  0  0  0  0  0  0  0  0  0  0  # atno 5215 bound_to 1247
  -14.6476  -27.4520  -37.9534 LP  0  0  0  0  0  0  0  0  0  0  0  0  # atno 5216 bound_to 1247
  -13.1088  -24.0112  -40.3882 LP  0  0  0  0  0  0  0  0  0  0  0  0  # atno 5217 bound_to 1931
  -12.4937  -24.3641  -38.9172 LP  0  0  0  0  0  0  0  0  0  0  0  0  # atno 5218 bound_to 1931
  -11.2099  -22.4298  -30.9237 LP  0  0  0  0  0  0  0  0  0  0  0  0  # atno 5224 bound_to 1070
  -12.7113  -22.7765  -30.3831 LP  0  0  0  0  0  0  0  0  0  0  0  0  # atno 5225 bound_to 1070

$$$$
IA_42|SeH_inactivess_minimized|sdf|128|dock9
  -GOLD-   4172121383D 1   1.00000     0.00000

 69 73  0  0  0  0  0  0  0  0  1 V2000
  -10.0239  -25.0246  -34.7503 C   0  0  0  0  0  0  0  0  0  0  0  0
   -9.3618  -26.2010  -34.3988 C   0  0  0  0  0  0  0  0  0  0  0  0
  -11.3106  -25.0819  -35.2859 C   0  0  0  0  0  0  0  0  0  0  0  0
   -9.9865  -27.4345  -34.5829 C   0  0  0  0  0  0  0  0  0  0  0  0
  -11.9352  -26.3154  -35.4700 C   0  0  0  0  0  0  0  0  0  0  0  0
  -11.2732  -27.4916  -35.1184 C   0  0  0  0  0  0  0  0  0  0  0  0
  -13.8814  -25.3826  -36.7831 C   0  0  0  0  0  0  0  0  0  0  0  0
  -17.7880  -24.6722  -40.3115 C   0  0  0  0  0  0  0  0  0  0  0  0
  -16.6999  -22.5740  -39.4731 C   0  0  0  0  0  0  0  0  0  0  0  0
  -18.6396  -23.5637  -38.2292 C   0  0  0  0  0  0  0  0  0  0  0  0
  -15.4853  -24.7624  -39.3230 C   0  0  0  0  0  0  0  0  0  0  0  0
  -17.4271  -25.7531  -38.0779 C   0  0  0  0  0  0  0  0  0  0  0  0
  -16.3378  -23.6517  -37.2377 C   0  0  0  0  0  0  0  0  0  0  0  0
   -4.4457  -32.5198  -34.3155 C   0  0  0  0  0  0  0  0  0  0  0  0
   -4.7415  -30.1523  -34.0529 C   0  0  0  0  0  0  0  0  0  0  0  0
   -5.7596  -32.6046  -35.0961 C   0  0  0  0  0  0  0  0  0  0  0  0
   -6.0574  -30.2230  -34.8318 C   0  0  0  0  0  0  0  0  0  0  0  0
  -16.4529  -23.9213  -40.1730 C   0  0  0  0  0  0  0  0  0  0  0  0
  -18.4026  -24.9159  -38.9228 C   0  0  0  0  0  0  0  0  0  0  0  0
  -17.3091  -22.8065  -38.0799 C   0  0  0  0  0  0  0  0  0  0  0  0
  -16.0804  -25.0129  -37.9195 C   0  0  0  0  0  0  0  0  0  0  0  0
   -9.0921  -31.0854  -34.5838 C   0  0  0  0  0  0  0  0  0  0  0  0
  -10.1297  -30.3764  -35.4526 C   0  0  0  0  0  0  0  0  0  0  0  0
   -7.9346  -31.6156  -35.4280 C   0  0  0  0  0  0  0  0  0  0  0  0
  -11.2738  -29.8166  -34.6176 C   0  0  0  0  0  0  0  0  0  0  0  0
   -3.8122  -31.2074  -34.4627 N   0  0  0  0  0  0  0  0  0  0  0  0
   -6.6831  -31.5425  -34.6768 N   0  0  0  0  0  0  0  0  0  0  0  0
  -13.2409  -26.3568  -36.0121 N   0  0  0  0  0  0  0  0  0  0  0  0
  -15.1692  -25.8061  -37.1237 N   0  0  0  0  0  0  0  0  0  0  0  0
  -13.4142  -24.3007  -37.1308 O   0  0  0  0  0  0  0  0  0  0  0  0
  -11.8657  -28.7073  -35.2900 O   0  0  0  0  0  0  0  0  0  0  0  0
   -9.5371  -24.0645  -34.6077 H   0  0  0  0  0  0  0  0  0  0  0  0
   -8.3597  -26.1566  -33.9825 H   0  0  0  0  0  0  0  0  0  0  0  0
  -11.8164  -24.1584  -35.5560 H   0  0  0  0  0  0  0  0  0  0  0  0
   -9.4648  -28.3470  -34.3075 H   0  0  0  0  0  0  0  0  0  0  0  0
  -18.4815  -24.0910  -40.9315 H   0  0  0  0  0  0  0  0  0  0  0  0
  -17.6282  -25.6290  -40.8236 H   0  0  0  0  0  0  0  0  0  0  0  0
  -15.7572  -22.0206  -39.3819 H   0  0  0  0  0  0  0  0  0  0  0  0
  -17.3748  -21.9561  -40.0783 H   0  0  0  0  0  0  0  0  0  0  0  0
  -19.3485  -22.9628  -38.8119 H   0  0  0  0  0  0  0  0  0  0  0  0
  -19.0928  -23.7231  -37.2430 H   0  0  0  0  0  0  0  0  0  0  0  0
  -15.2822  -25.7169  -39.8262 H   0  0  0  0  0  0  0  0  0  0  0  0
  -14.5190  -24.2476  -39.2391 H   0  0  0  0  0  0  0  0  0  0  0  0
  -17.8669  -25.9557  -37.0925 H   0  0  0  0  0  0  0  0  0  0  0  0
  -17.2693  -26.7315  -38.5507 H   0  0  0  0  0  0  0  0  0  0  0  0
  -15.3927  -23.1095  -37.1030 H   0  0  0  0  0  0  0  0  0  0  0  0
  -16.7522  -23.8015  -36.2319 H   0  0  0  0  0  0  0  0  0  0  0  0
   -4.6198  -32.7346  -33.2534 H   0  0  0  0  0  0  0  0  0  0  0  0
   -3.7572  -33.2864  -34.6874 H   0  0  0  0  0  0  0  0  0  0  0  0
   -4.2706  -29.1790  -34.2299 H   0  0  0  0  0  0  0  0  0  0  0  0
   -4.9350  -30.2226  -32.9750 H   0  0  0  0  0  0  0  0  0  0  0  0
   -5.5536  -32.5400  -36.1728 H   0  0  0  0  0  0  0  0  0  0  0  0
   -6.2119  -33.5852  -34.9068 H   0  0  0  0  0  0  0  0  0  0  0  0
   -6.7288  -29.4462  -34.4477 H   0  0  0  0  0  0  0  0  0  0  0  0
   -5.8706  -30.0018  -35.8910 H   0  0  0  0  0  0  0  0  0  0  0  0
  -16.0202  -23.7492  -41.1648 H   0  0  0  0  0  0  0  0  0  0  0  0
  -19.3537  -25.4498  -39.0276 H   0  0  0  0  0  0  0  0  0  0  0  0
  -17.4845  -21.8436  -37.5872 H   0  0  0  0  0  0  0  0  0  0  0  0
   -8.7108  -30.3877  -33.8274 H   0  0  0  0  0  0  0  0  0  0  0  0
   -9.5712  -31.9136  -34.0465 H   0  0  0  0  0  0  0  0  0  0  0  0
  -10.5332  -31.0671  -36.2035 H   0  0  0  0  0  0  0  0  0  0  0  0
   -9.6582  -29.5619  -36.0168 H   0  0  0  0  0  0  0  0  0  0  0  0
   -7.8352  -31.0246  -36.3449 H   0  0  0  0  0  0  0  0  0  0  0  0
   -8.1229  -32.6549  -35.7194 H   0  0  0  0  0  0  0  0  0  0  0  0
  -12.0512  -30.5719  -34.4651 H   0  0  0  0  0  0  0  0  0  0  0  0
  -10.9242  -29.4809  -33.6358 H   0  0  0  0  0  0  0  0  0  0  0  0
   -2.9737  -31.1668  -33.8843 H   0  0  0  0  0  0  0  0  0  0  0  0
  -13.7791  -27.1976  -35.8174 H   0  0  0  0  0  0  0  0  0  0  0  0
  -15.4803  -26.7145  -36.7965 H   0  0  0  0  0  0  0  0  0  0  0  0
  1  2  1  0  0  0  0
  1  3  2  0  0  0  0
  2  4  2  0  0  0  0
  3  5  1  0  0  0  0
  4  6  1  0  0  0  0
  5  6  2  0  0  0  0
  5 28  1  0  0  0  0
  6 31  1  0  0  0  0
  7 28  1  0  0  0  0
  7 29  1  0  0  0  0
  7 30  2  0  0  0  0
  8 18  1  0  0  0  0
  8 19  1  0  0  0  0
  9 18  1  0  0  0  0
  9 20  1  0  0  0  0
 10 19  1  0  0  0  0
 10 20  1  0  0  0  0
 11 18  1  0  0  0  0
 11 21  1  0  0  0  0
 12 19  1  0  0  0  0
 12 21  1  0  0  0  0
 13 20  1  0  0  0  0
 13 21  1  0  0  0  0
 14 16  1  0  0  0  0
 14 26  1  0  0  0  0
 15 17  1  0  0  0  0
 15 26  1  0  0  0  0
 16 27  1  0  0  0  0
 17 27  1  0  0  0  0
 21 29  1  0  0  0  0
 22 23  1  0  0  0  0
 22 24  1  0  0  0  0
 23 25  1  0  0  0  0
 24 27  1  0  0  0  0
 25 31  1  0  0  0  0
  1 32  1  0  0  0  0
  2 33  1  0  0  0  0
  3 34  1  0  0  0  0
  4 35  1  0  0  0  0
  8 36  1  0  0  0  0
  8 37  1  0  0  0  0
  9 38  1  0  0  0  0
  9 39  1  0  0  0  0
 10 40  1  0  0  0  0
 10 41  1  0  0  0  0
 11 42  1  0  0  0  0
 11 43  1  0  0  0  0
 12 44  1  0  0  0  0
 12 45  1  0  0  0  0
 13 46  1  0  0  0  0
 13 47  1  0  0  0  0
 14 48  1  0  0  0  0
 14 49  1  0  0  0  0
 15 50  1  0  0  0  0
 15 51  1  0  0  0  0
 16 52  1  0  0  0  0
 16 53  1  0  0  0  0
 17 54  1  0  0  0  0
 17 55  1  0  0  0  0
 18 56  1  0  0  0  0
 19 57  1  0  0  0  0
 20 58  1  0  0  0  0
 22 59  1  0  0  0  0
 22 60  1  0  0  0  0
 23 61  1  0  0  0  0
 23 62  1  0  0  0  0
 24 63  1  0  0  0  0
 24 64  1  0  0  0  0
 25 65  1  0  0  0  0
 25 66  1  0  0  0  0
 26 67  1  0  0  0  0
 28 68  1  0  0  0  0
 29 69  1  0  0  0  0
M  END
> <Name>
IA_42

> <SourceTag>
IA_42

> <Gold.Version>
5.2

> <Gold.Id.Protein>
6HGV|6HGV_protein|mol2

> <Gold.Goldscore.Fitness>
54.7841

> <Gold.Goldscore.Internal.Vdw>
-21.5372

> <Gold.Goldscore.Internal.Torsion>
-6.1934

> <Gold.Goldscore.External.Vdw>
48.8160

> <Gold.Goldscore.Internal.HBond>
0.0000

> <Gold.Goldscore.External.HBond>
0.3126

> <Gold.Goldscore.Internal.Correction>
-15.0801

> <Gold.Goldscore.Hbonds>
donor molecule, donor type, donor heavy atom, donor atom, acceptor molecule, acceptor atom, score
      P1  H  1256  3854       L1    31  0.12
      P1  H  1931  4507       L1    30  0.01
      L1  H    29    69       P1  1247  0.02

> <Gold.Goldscore.Internal.Vdw.Weighted>
-21.5372

> <Gold.Goldscore.Internal.Torsion.Weighted>
-6.1934

> <Gold.Goldscore.External.Vdw.Weighted>
67.1220

> <Gold.Goldscore.Internal.HBond.Weighted>
0.0000

> <Gold.Goldscore.External.HBond.Weighted>
0.3126

> <Gold.Goldscore.Internal.Correction.Weighted>
-15.0801

> <Gold.Protein.RotatedTorsions>
[ 3781 1176 1175 1172 ] final -119.81 input   60.00 | X-H torsion
[ 3847 1247 1246 1244 ] final   63.45 input   60.00 | X-H torsion
[ 4507 1931 1930 1928 ] final   81.63 input   60.00 | X-H torsion
[ 3677 1070 1069 1066 ] final -113.27 input   60.00 | X-H torsion
[ 3525  925  924  922 ] final   62.15 input   59.99 | X-H torsion
[ 4531 1957 1955 1953 ] final  -36.58 input   60.00 | X-H torsion

> <Gold.Protein.ActiveResidues>
 PHE267  PRO268  MET310  ASP335  TRP336  MET339  TYR343  THR360  PRO361  ILE363 
 PRO371  SER374  ILE375  ASN378  PHE381  TYR383  GLN384  PHE387  LEU408  LEU417 
 MET419  LEU428  TYR466  MET469  ASN472  ASP496  VAL498  LEU499  MET503  HIS524 
 TRP525 

> <Gold.Protein.RotatedAtoms>
   -2.7733  -29.8696  -30.8635 H   0  0  0  0  0  0  0  0  0  0  0  0  # atno 3525 bound_to 925 
  -11.5494  -23.6468  -31.4470 H   0  0  0  0  0  0  0  0  0  0  0  0  # atno 3677 bound_to 1070
   -9.4695  -36.3174  -33.7554 H   0  0  0  0  0  0  0  0  0  0  0  0  # atno 3781 bound_to 1176
  -14.7870  -28.9099  -37.3437 H   0  0  0  0  0  0  0  0  0  0  0  0  # atno 3847 bound_to 1247
  -12.4961  -24.3674  -38.9229 H   0  0  0  0  0  0  0  0  0  0  0  0  # atno 4507 bound_to 1931
   -2.3529  -32.2126  -36.7799 H   0  0  0  0  0  0  0  0  0  0  0  0  # atno 4531 bound_to 1957
   -9.8374  -37.0803  -32.3659 LP  0  0  0  0  0  0  0  0  0  0  0  0  # atno 5205 bound_to 1176
  -10.8077  -37.2393  -33.6696 LP  0  0  0  0  0  0  0  0  0  0  0  0  # atno 5206 bound_to 1176
  -16.0720  -27.9199  -37.2153 LP  0  0  0  0  0  0  0  0  0  0  0  0  # atno 5215 bound_to 1247
  -14.7083  -27.4014  -37.9489 LP  0  0  0  0  0  0  0  0  0  0  0  0  # atno 5216 bound_to 1247
  -13.5944  -25.3574  -39.6025 LP  0  0  0  0  0  0  0  0  0  0  0  0  # atno 5217 bound_to 1931
  -13.1083  -24.0108  -40.3879 LP  0  0  0  0  0  0  0  0  0  0  0  0  # atno 5218 bound_to 1931
  -11.4894  -22.2200  -30.6668 LP  0  0  0  0  0  0  0  0  0  0  0  0  # atno 5224 bound_to 1070
  -12.8180  -23.1622  -30.5503 LP  0  0  0  0  0  0  0  0  0  0  0  0  # atno 5225 bound_to 1070

$$$$
IA_158.cdx|SeH_inactivess_minimized|sdf|59|dock8
  -GOLD-   4172119533D 1   1.00000     0.00000

 23 22  0  0  0  0  0  0  0  0  1 V2000
  -11.8826  -25.1382  -36.3941 C   0  0  0  0  0  0  0  0  0  0  0  0
  -15.3351  -25.4966  -36.7094 C   0  0  0  0  0  0  0  0  0  0  0  0
   -9.2370  -26.1348  -34.3421 C   0  0  0  0  0  0  0  0  0  0  0  0
  -11.4380  -25.1981  -33.5714 C   0  0  0  0  0  0  0  0  0  0  0  0
  -11.3831  -27.3075  -34.9366 C   0  0  0  0  0  0  0  0  0  0  0  0
  -13.9682  -25.8847  -36.1841 C   0  0  0  0  0  0  0  0  0  0  0  0
  -10.7156  -25.9558  -34.6848 C   0  0  0  0  0  0  0  0  0  0  0  0
  -12.9460  -25.1099  -36.8917 N   0  0  0  0  0  0  0  0  0  0  0  0
  -10.8135  -25.1539  -35.9126 N   0  0  0  0  0  0  0  0  0  0  0  0
  -15.4088  -25.7088  -37.7802 H   0  0  0  0  0  0  0  0  0  0  0  0
  -16.1250  -26.0523  -36.1932 H   0  0  0  0  0  0  0  0  0  0  0  0
  -15.5244  -24.4288  -36.5561 H   0  0  0  0  0  0  0  0  0  0  0  0
   -8.7266  -25.1670  -34.2780 H   0  0  0  0  0  0  0  0  0  0  0  0
   -9.1109  -26.6483  -33.3827 H   0  0  0  0  0  0  0  0  0  0  0  0
   -8.7211  -26.7223  -35.1102 H   0  0  0  0  0  0  0  0  0  0  0  0
  -10.7820  -24.4492  -33.1129 H   0  0  0  0  0  0  0  0  0  0  0  0
  -11.7587  -25.8784  -32.7739 H   0  0  0  0  0  0  0  0  0  0  0  0
  -12.3258  -24.6819  -33.9528 H   0  0  0  0  0  0  0  0  0  0  0  0
  -12.4274  -27.3010  -34.6041 H   0  0  0  0  0  0  0  0  0  0  0  0
  -11.3690  -27.5653  -36.0011 H   0  0  0  0  0  0  0  0  0  0  0  0
  -10.8739  -28.1078  -34.3875 H   0  0  0  0  0  0  0  0  0  0  0  0
  -13.7899  -26.9528  -36.3417 H   0  0  0  0  0  0  0  0  0  0  0  0
  -13.9015  -25.6809  -35.1110 H   0  0  0  0  0  0  0  0  0  0  0  0
  1  8  2  0  0  0  0
  1  9  2  0  0  0  0
  2  6  1  0  0  0  0
  3  7  1  0  0  0  0
  4  7  1  0  0  0  0
  5  7  1  0  0  0  0
  6  8  1  0  0  0  0
  7  9  1  0  0  0  0
  2 10  1  0  0  0  0
  2 11  1  0  0  0  0
  2 12  1  0  0  0  0
  3 13  1  0  0  0  0
  3 14  1  0  0  0  0
  3 15  1  0  0  0  0
  4 16  1  0  0  0  0
  4 17  1  0  0  0  0
  4 18  1  0  0  0  0
  5 19  1  0  0  0  0
  5 20  1  0  0  0  0
  5 21  1  0  0  0  0
  6 22  1  0  0  0  0
  6 23  1  0  0  0  0
M  END
> <Name>
IA_158.cdx

> <SourceTag>
IA_158

> <Gold.Version>
5.2

> <Gold.Id.Protein>
6HGV|6HGV_protein|mol2

> <Gold.Goldscore.Fitness>
38.3414

> <Gold.Goldscore.Internal.Vdw>
-7.2880

> <Gold.Goldscore.Internal.Torsion>
-4.9260

> <Gold.Goldscore.External.Vdw>
26.9927

> <Gold.Goldscore.Internal.HBond>
0.0000

> <Gold.Goldscore.External.HBond>
1.9192

> <Gold.Goldscore.Internal.Correction>
-11.5212

> <Gold.Goldscore.Hbonds>
donor molecule, donor type, donor heavy atom, donor atom, acceptor molecule, acceptor atom, score
      P1  H  1931  4507       L1     8  0.96

> <Gold.Goldscore.Internal.Vdw.Weighted>
-7.2880

> <Gold.Goldscore.Internal.Torsion.Weighted>
-4.9260

> <Gold.Goldscore.External.Vdw.Weighted>
37.1150

> <Gold.Goldscore.Internal.HBond.Weighted>
0.0000

> <Gold.Goldscore.External.HBond.Weighted>
1.9192

> <Gold.Goldscore.Internal.Correction.Weighted>
-11.5212

> <Gold.Protein.RotatedTorsions>
[ 3781 1176 1175 1172 ] final   82.86 input   60.00 | X-H torsion
[ 3847 1247 1246 1244 ] final   71.63 input   60.00 | X-H torsion
[ 4507 1931 1930 1928 ] final   33.02 input   60.00 | X-H torsion
[ 3677 1070 1069 1066 ] final  -38.03 input   60.00 | X-H torsion
[ 3525  925  924  922 ] final  -12.60 input   59.99 | X-H torsion
[ 4531 1957 1955 1953 ] final    3.12 input   60.00 | X-H torsion

> <Gold.Protein.ActiveResidues>
 PHE267  PRO268  MET310  ASP335  TRP336  MET339  TYR343  THR360  PRO361  ILE363 
 PRO371  SER374  ILE375  ASN378  PHE381  TYR383  GLN384  PHE387  LEU408  LEU417 
 MET419  LEU428  TYR466  MET469  ASN472  ASP496  VAL498  LEU499  MET503  HIS524 
 TRP525 

> <Gold.Protein.RotatedAtoms>
   -3.6942  -29.5200  -30.2963 H   0  0  0  0  0  0  0  0  0  0  0  0  # atno 3525 bound_to 925 
  -12.5851  -23.6961  -30.9658 H   0  0  0  0  0  0  0  0  0  0  0  0  # atno 3677 bound_to 1070
  -10.3444  -37.3620  -32.5249 H   0  0  0  0  0  0  0  0  0  0  0  0  # atno 3781 bound_to 1176
  -14.6798  -28.8592  -37.4052 H   0  0  0  0  0  0  0  0  0  0  0  0  # atno 3847 bound_to 1247
  -12.8976  -25.0183  -38.8270 H   0  0  0  0  0  0  0  0  0  0  0  0  # atno 4507 bound_to 1931
   -2.8898  -32.5393  -36.6835 H   0  0  0  0  0  0  0  0  0  0  0  0  # atno 4531 bound_to 1957
  -10.5202  -36.8960  -34.0741 LP  0  0  0  0  0  0  0  0  0  0  0  0  # atno 5205 bound_to 1176
   -9.2440  -36.3717  -33.2005 LP  0  0  0  0  0  0  0  0  0  0  0  0  # atno 5206 bound_to 1176
  -16.0692  -28.0459  -37.1682 LP  0  0  0  0  0  0  0  0  0  0  0  0  # atno 5215 bound_to 1247
  -14.8191  -27.3266  -37.9341 LP  0  0  0  0  0  0  0  0  0  0  0  0  # atno 5216 bound_to 1247
  -13.6813  -24.9399  -40.2509 LP  0  0  0  0  0  0  0  0  0  0  0  0  # atno 5217 bound_to 1931
  -12.6171  -23.7728  -39.8360 LP  0  0  0  0  0  0  0  0  0  0  0  0  # atno 5218 bound_to 1931
  -11.1246  -23.0817  -31.3370 LP  0  0  0  0  0  0  0  0  0  0  0  0  # atno 5224 bound_to 1070
  -12.1399  -22.2509  -30.3646 LP  0  0  0  0  0  0  0  0  0  0  0  0  # atno 5225 bound_to 1070

$$$$
IA_158.cdx|SeH_inactivess_minimized|sdf|59|dock2
  -GOLD-   4172119533D 1   1.00000     0.00000

 23 22  0  0  0  0  0  0  0  0  1 V2000
  -11.8794  -25.0125  -36.4288 C   0  0  0  0  0  0  0  0  0  0  0  0
  -15.3038  -25.5229  -36.8309 C   0  0  0  0  0  0  0  0  0  0  0  0
   -9.2190  -26.0201  -34.4057 C   0  0  0  0  0  0  0  0  0  0  0  0
  -11.4488  -25.1906  -33.5958 C   0  0  0  0  0  0  0  0  0  0  0  0
  -11.3282  -27.2211  -35.0719 C   0  0  0  0  0  0  0  0  0  0  0  0
  -13.9281  -25.8712  -36.3005 C   0  0  0  0  0  0  0  0  0  0  0  0
  -10.7013  -25.8661  -34.7450 C   0  0  0  0  0  0  0  0  0  0  0  0
  -12.9345  -25.0087  -36.9446 N   0  0  0  0  0  0  0  0  0  0  0  0
  -10.8190  -25.0026  -35.9285 N   0  0  0  0  0  0  0  0  0  0  0  0
  -15.3671  -25.7367  -37.9021 H   0  0  0  0  0  0  0  0  0  0  0  0
  -16.0790  -26.1016  -36.3180 H   0  0  0  0  0  0  0  0  0  0  0  0
  -15.5247  -24.4612  -36.6780 H   0  0  0  0  0  0  0  0  0  0  0  0
   -9.0828  -26.5989  -33.4851 H   0  0  0  0  0  0  0  0  0  0  0  0
   -8.6785  -26.5311  -35.2100 H   0  0  0  0  0  0  0  0  0  0  0  0
   -8.7459  -25.0443  -34.2475 H   0  0  0  0  0  0  0  0  0  0  0  0
  -10.8398  -24.4034  -33.1367 H   0  0  0  0  0  0  0  0  0  0  0  0
  -11.6946  -25.9108  -32.8067 H   0  0  0  0  0  0  0  0  0  0  0  0
  -12.3836  -24.7363  -33.9420 H   0  0  0  0  0  0  0  0  0  0  0  0
  -12.3643  -27.2732  -34.7185 H   0  0  0  0  0  0  0  0  0  0  0  0
  -11.3296  -27.4080  -36.1512 H   0  0  0  0  0  0  0  0  0  0  0  0
  -10.7798  -28.0371  -34.5875 H   0  0  0  0  0  0  0  0  0  0  0  0
  -13.6933  -26.9188  -36.5124 H   0  0  0  0  0  0  0  0  0  0  0  0
  -13.8902  -25.7240  -35.2168 H   0  0  0  0  0  0  0  0  0  0  0  0
  1  8  2  0  0  0  0
  1  9  2  0  0  0  0
  2  6  1  0  0  0  0
  3  7  1  0  0  0  0
  4  7  1  0  0  0  0
  5  7  1  0  0  0  0
  6  8  1  0  0  0  0
  7  9  1  0  0  0  0
  2 10  1  0  0  0  0
  2 11  1  0  0  0  0
  2 12  1  0  0  0  0
  3 13  1  0  0  0  0
  3 14  1  0  0  0  0
  3 15  1  0  0  0  0
  4 16  1  0  0  0  0
  4 17  1  0  0  0  0
  4 18  1  0  0  0  0
  5 19  1  0  0  0  0
  5 20  1  0  0  0  0
  5 21  1  0  0  0  0
  6 22  1  0  0  0  0
  6 23  1  0  0  0  0
M  END
> <Name>
IA_158.cdx

> <SourceTag>
IA_158

> <Gold.Version>
5.2

> <Gold.Id.Protein>
6HGV|6HGV_protein|mol2

> <Gold.Goldscore.Fitness>
38.8487

> <Gold.Goldscore.Internal.Vdw>
-7.3477

> <Gold.Goldscore.Internal.Torsion>
-4.7686

> <Gold.Goldscore.External.Vdw>
27.3418

> <Gold.Goldscore.Internal.HBond>
0.0000

> <Gold.Goldscore.External.HBond>
1.8052

> <Gold.Goldscore.Internal.Correction>
-11.5649

> <Gold.Goldscore.Hbonds>
donor molecule, donor type, donor heavy atom, donor atom, acceptor molecule, acceptor atom, score
      P1  H  1931  4507       L1     8  0.90

> <Gold.Goldscore.Internal.Vdw.Weighted>
-7.3477

> <Gold.Goldscore.Internal.Torsion.Weighted>
-4.7686

> <Gold.Goldscore.External.Vdw.Weighted>
37.5950

> <Gold.Goldscore.Internal.HBond.Weighted>
0.0000

> <Gold.Goldscore.External.HBond.Weighted>
1.8052

> <Gold.Goldscore.Internal.Correction.Weighted>
-11.5649

> <Gold.Protein.RotatedTorsions>
[ 3781 1176 1175 1172 ] final   66.31 input   60.00 | X-H torsion
[ 3847 1247 1246 1244 ] final    5.05 input   60.00 | X-H torsion
[ 4507 1931 1930 1928 ] final   36.43 input   60.00 | X-H torsion
[ 3677 1070 1069 1066 ] final  -56.03 input   60.00 | X-H torsion
[ 3525  925  924  922 ] final  -97.66 input   59.99 | X-H torsion
[ 4531 1957 1955 1953 ] final   58.77 input   60.00 | X-H torsion

> <Gold.Protein.ActiveResidues>
 PHE267  PRO268  MET310  ASP335  TRP336  MET339  TYR343  THR360  PRO361  ILE363 
 PRO371  SER374  ILE375  ASN378  PHE381  TYR383  GLN384  PHE387  LEU408  LEU417 
 MET419  LEU428  TYR466  MET469  ASN472  ASP496  VAL498  LEU499  MET503  HIS524 
 TRP525 

> <Gold.Protein.RotatedAtoms>
   -3.3379  -29.7837  -29.1108 H   0  0  0  0  0  0  0  0  0  0  0  0  # atno 3525 bound_to 925 
  -12.3741  -23.8098  -31.1343 H   0  0  0  0  0  0  0  0  0  0  0  0  # atno 3677 bound_to 1070
  -10.5400  -37.4276  -32.6982 H   0  0  0  0  0  0  0  0  0  0  0  0  # atno 3781 bound_to 1176
  -15.6441  -28.7678  -37.0616 H   0  0  0  0  0  0  0  0  0  0  0  0  # atno 3847 bound_to 1247
  -12.8616  -24.9778  -38.8143 H   0  0  0  0  0  0  0  0  0  0  0  0  # atno 4507 bound_to 1931
   -3.0622  -33.3960  -36.6655 H   0  0  0  0  0  0  0  0  0  0  0  0  # atno 4531 bound_to 1957
  -10.3187  -36.7321  -34.1526 LP  0  0  0  0  0  0  0  0  0  0  0  0  # atno 5205 bound_to 1176
   -9.2485  -36.4695  -32.9475 LP  0  0  0  0  0  0  0  0  0  0  0  0  # atno 5206 bound_to 1176
  -15.6143  -27.2512  -37.6508 LP  0  0  0  0  0  0  0  0  0  0  0  0  # atno 5215 bound_to 1247
  -14.3029  -28.2132  -37.7975 LP  0  0  0  0  0  0  0  0  0  0  0  0  # atno 5216 bound_to 1247
  -13.6899  -24.9820  -40.2150 LP  0  0  0  0  0  0  0  0  0  0  0  0  # atno 5217 bound_to 1931
  -12.6447  -23.7715  -39.8847 LP  0  0  0  0  0  0  0  0  0  0  0  0  # atno 5218 bound_to 1931
  -11.0847  -22.8198  -31.2074 LP  0  0  0  0  0  0  0  0  0  0  0  0  # atno 5224 bound_to 1070
  -12.3922  -22.3983  -30.3246 LP  0  0  0  0  0  0  0  0  0  0  0  0  # atno 5225 bound_to 1070

$$$$
IA_178.cdx|SeH_inactivess_minimized|sdf|79|dock8
  -GOLD-   4172120213D 1   1.00000     0.00000

 23 24  0  0  0  0  0  0  0  0  1 V2000
  -14.1012  -27.0872  -35.6197 C   0  0  0  0  0  0  0  0  0  0  0  0
  -13.2433  -25.2722  -36.9640 C   0  0  0  0  0  0  0  0  0  0  0  0
  -12.7973  -27.4729  -35.3084 C   0  0  0  0  0  0  0  0  0  0  0  0
  -11.9395  -25.6579  -36.6526 C   0  0  0  0  0  0  0  0  0  0  0  0
  -14.3241  -25.9869  -36.4475 C   0  0  0  0  0  0  0  0  0  0  0  0
  -11.7165  -26.7582  -35.8249 C   0  0  0  0  0  0  0  0  0  0  0  0
  -16.1207  -25.1611  -37.9756 C   0  0  0  0  0  0  0  0  0  0  0  0
  -17.4244  -24.8868  -37.8712 C   0  0  0  0  0  0  0  0  0  0  0  0
  -16.7267  -25.5979  -35.8179 C   0  0  0  0  0  0  0  0  0  0  0  0
  -19.1752  -24.9561  -36.0939 C   0  0  0  0  0  0  0  0  0  0  0  0
  -15.6220  -25.6028  -36.7571 N   0  0  0  0  0  0  0  0  0  0  0  0
  -17.8334  -25.1350  -36.5887 N   0  0  0  0  0  0  0  0  0  0  0  0
  -16.7074  -25.9184  -34.6385 O   0  0  0  0  0  0  0  0  0  0  0  0
  -10.1076  -27.2342  -35.4405 Cl  0  0  0  0  0  0  0  0  0  0  0  0
  -14.9360  -27.6513  -35.2121 H   0  0  0  0  0  0  0  0  0  0  0  0
  -13.4056  -24.4133  -37.6100 H   0  0  0  0  0  0  0  0  0  0  0  0
  -12.6382  -28.3320  -34.6620 H   0  0  0  0  0  0  0  0  0  0  0  0
  -11.1067  -25.0921  -37.0621 H   0  0  0  0  0  0  0  0  0  0  0  0
  -15.4842  -25.0767  -38.8424 H   0  0  0  0  0  0  0  0  0  0  0  0
  -18.1033  -24.5273  -38.6273 H   0  0  0  0  0  0  0  0  0  0  0  0
  -19.5330  -23.9513  -36.3331 H   0  0  0  0  0  0  0  0  0  0  0  0
  -19.1987  -25.0892  -35.0089 H   0  0  0  0  0  0  0  0  0  0  0  0
  -19.8473  -25.6872  -36.5513 H   0  0  0  0  0  0  0  0  0  0  0  0
  1  3  1  0  0  0  0
  1  5  2  0  0  0  0
  2  4  2  0  0  0  0
  2  5  1  0  0  0  0
  3  6  2  0  0  0  0
  4  6  1  0  0  0  0
  5 11  1  0  0  0  0
  6 14  1  0  0  0  0
  7  8  2  0  0  0  0
  7 11  1  0  0  0  0
  8 12  1  0  0  0  0
  9 11  1  0  0  0  0
  9 12  1  0  0  0  0
  9 13  2  0  0  0  0
 10 12  1  0  0  0  0
  1 15  1  0  0  0  0
  2 16  1  0  0  0  0
  3 17  1  0  0  0  0
  4 18  1  0  0  0  0
  7 19  1  0  0  0  0
  8 20  1  0  0  0  0
 10 21  1  0  0  0  0
 10 22  1  0  0  0  0
 10 23  1  0  0  0  0
M  END
> <Name>
IA_178.cdx

> <SourceTag>
IA_178

> <Gold.Version>
5.2

> <Gold.Id.Protein>
6HGV|6HGV_protein|mol2

> <Gold.Goldscore.Fitness>
41.8302

> <Gold.Goldscore.Internal.Vdw>
0.7132

> <Gold.Goldscore.Internal.Torsion>
-3.2662

> <Gold.Goldscore.External.Vdw>
30.4364

> <Gold.Goldscore.Internal.HBond>
0.0000

> <Gold.Goldscore.External.HBond>
0.0000

> <Gold.Goldscore.Internal.Correction>
-2.5332

> <Gold.Goldscore.Internal.Vdw.Weighted>
0.7132

> <Gold.Goldscore.Internal.Torsion.Weighted>
-3.2662

> <Gold.Goldscore.External.Vdw.Weighted>
41.8500

> <Gold.Goldscore.Internal.HBond.Weighted>
0.0000

> <Gold.Goldscore.External.HBond.Weighted>
0.0000

> <Gold.Goldscore.Internal.Correction.Weighted>
-2.5332

> <Gold.Protein.RotatedTorsions>
[ 3781 1176 1175 1172 ] final  -53.57 input   60.00 | X-H torsion
[ 3847 1247 1246 1244 ] final  -37.44 input   60.00 | X-H torsion
[ 4507 1931 1930 1928 ] final -109.39 input   60.00 | X-H torsion
[ 3677 1070 1069 1066 ] final  -58.63 input   60.00 | X-H torsion
[ 3525  925  924  922 ] final   10.55 input   59.99 | X-H torsion
[ 4531 1957 1955 1953 ] final -134.39 input   60.00 | X-H torsion

> <Gold.Protein.ActiveResidues>
 PHE267  PRO268  MET310  ASP335  TRP336  MET339  TYR343  THR360  PRO361  ILE363 
 PRO371  SER374  ILE375  ASN378  PHE381  TYR383  GLN384  PHE387  LEU408  LEU417 
 MET419  LEU428  TYR466  MET469  ASN472  ASP496  VAL498  LEU499  MET503  HIS524 
 TRP525 

> <Gold.Protein.RotatedAtoms>
   -3.4904  -29.5805  -30.6062 H   0  0  0  0  0  0  0  0  0  0  0  0  # atno 3525 bound_to 925 
  -12.3397  -23.8199  -31.1570 H   0  0  0  0  0  0  0  0  0  0  0  0  # atno 3677 bound_to 1070
  -10.3170  -36.7362  -34.1468 H   0  0  0  0  0  0  0  0  0  0  0  0  # atno 3781 bound_to 1176
  -16.0323  -28.2146  -37.1209 H   0  0  0  0  0  0  0  0  0  0  0  0  # atno 3847 bound_to 1247
  -13.5676  -24.6388  -40.4235 H   0  0  0  0  0  0  0  0  0  0  0  0  # atno 4507 bound_to 1931
   -1.2606  -33.0780  -37.0025 H   0  0  0  0  0  0  0  0  0  0  0  0  # atno 4531 bound_to 1957
   -9.2482  -36.4687  -32.9492 LP  0  0  0  0  0  0  0  0  0  0  0  0  # atno 5205 bound_to 1176
  -10.5435  -37.4292  -32.6920 LP  0  0  0  0  0  0  0  0  0  0  0  0  # atno 5206 bound_to 1176
  -14.9784  -27.2507  -37.9006 LP  0  0  0  0  0  0  0  0  0  0  0  0  # atno 5215 bound_to 1247
  -14.5478  -28.7709  -37.4881 LP  0  0  0  0  0  0  0  0  0  0  0  0  # atno 5216 bound_to 1247
  -12.4786  -23.8513  -39.5060 LP  0  0  0  0  0  0  0  0  0  0  0  0  # atno 5217 bound_to 1931
  -13.1450  -25.2436  -38.9732 LP  0  0  0  0  0  0  0  0  0  0  0  0  # atno 5218 bound_to 1931
  -11.0860  -22.7829  -31.1858 LP  0  0  0  0  0  0  0  0  0  0  0  0  # atno 5224 bound_to 1070
  -12.4256  -22.4250  -30.3233 LP  0  0  0  0  0  0  0  0  0  0  0  0  # atno 5225 bound_to 1070

$$$$
IA_206.cdx|SeH_inactivess_minimized|sdf|103|dock3
  -GOLD-   4172120493D 1   1.00000     0.00000

 30 30  0  0  0  0  0  0  0  0  1 V2000
  -13.2715  -26.5105  -35.4159 C   0  0  0  0  0  0  0  0  0  0  0  0
  -12.7026  -24.7538  -36.9739 C   0  0  0  0  0  0  0  0  0  0  0  0
  -14.6239  -26.3280  -35.7038 C   0  0  0  0  0  0  0  0  0  0  0  0
  -14.0552  -24.5713  -37.2618 C   0  0  0  0  0  0  0  0  0  0  0  0
  -12.3107  -25.7234  -36.0508 C   0  0  0  0  0  0  0  0  0  0  0  0
  -15.0159  -25.3583  -36.6268 C   0  0  0  0  0  0  0  0  0  0  0  0
  -17.4698  -25.2472  -36.0382 C   0  0  0  0  0  0  0  0  0  0  0  0
  -10.4039  -27.3702  -35.9747 C   0  0  0  0  0  0  0  0  0  0  0  0
  -10.5022  -25.4778  -34.3121 C   0  0  0  0  0  0  0  0  0  0  0  0
  -19.9580  -25.0097  -36.0713 C   0  0  0  0  0  0  0  0  0  0  0  0
  -10.8646  -25.9186  -35.7429 C   0  0  0  0  0  0  0  0  0  0  0  0
  -16.3686  -25.1757  -36.9152 N   0  0  0  0  0  0  0  0  0  0  0  0
  -18.6665  -25.0012  -36.7189 N   0  0  0  0  0  0  0  0  0  0  0  0
  -17.4195  -25.4900  -34.8347 O   0  0  0  0  0  0  0  0  0  0  0  0
  -12.9752  -27.2669  -34.6936 H   0  0  0  0  0  0  0  0  0  0  0  0
  -11.9609  -24.1356  -37.4728 H   0  0  0  0  0  0  0  0  0  0  0  0
  -15.3640  -26.9473  -35.2032 H   0  0  0  0  0  0  0  0  0  0  0  0
  -14.3496  -23.8120  -37.9820 H   0  0  0  0  0  0  0  0  0  0  0  0
  -10.6806  -27.7265  -36.9730 H   0  0  0  0  0  0  0  0  0  0  0  0
  -10.8487  -28.0534  -35.2430 H   0  0  0  0  0  0  0  0  0  0  0  0
   -9.3144  -27.4446  -35.8839 H   0  0  0  0  0  0  0  0  0  0  0  0
  -11.0457  -26.0816  -33.5768 H   0  0  0  0  0  0  0  0  0  0  0  0
  -10.7599  -24.4273  -34.1392 H   0  0  0  0  0  0  0  0  0  0  0  0
   -9.4311  -25.5940  -34.1135 H   0  0  0  0  0  0  0  0  0  0  0  0
  -20.5566  -25.8478  -36.4378 H   0  0  0  0  0  0  0  0  0  0  0  0
  -20.4916  -24.0784  -36.2799 H   0  0  0  0  0  0  0  0  0  0  0  0
  -19.8376  -25.1098  -34.9893 H   0  0  0  0  0  0  0  0  0  0  0  0
  -10.2495  -25.2933  -36.4179 H   0  0  0  0  0  0  0  0  0  0  0  0
  -16.6071  -24.9598  -37.8889 H   0  0  0  0  0  0  0  0  0  0  0  0
  -18.6258  -24.8078  -37.7145 H   0  0  0  0  0  0  0  0  0  0  0  0
  1  3  1  0  0  0  0
  1  5  2  0  0  0  0
  2  4  2  0  0  0  0
  2  5  1  0  0  0  0
  3  6  2  0  0  0  0
  4  6  1  0  0  0  0
  5 11  1  0  0  0  0
  6 12  1  0  0  0  0
  7 12  1  0  0  0  0
  7 13  1  0  0  0  0
  7 14  2  0  0  0  0
  8 11  1  0  0  0  0
  9 11  1  0  0  0  0
 10 13  1  0  0  0  0
  1 15  1  0  0  0  0
  2 16  1  0  0  0  0
  3 17  1  0  0  0  0
  4 18  1  0  0  0  0
  8 19  1  0  0  0  0
  8 20  1  0  0  0  0
  8 21  1  0  0  0  0
  9 22  1  0  0  0  0
  9 23  1  0  0  0  0
  9 24  1  0  0  0  0
 10 25  1  0  0  0  0
 10 26  1  0  0  0  0
 10 27  1  0  0  0  0
 11 28  1  0  0  0  0
 12 29  1  0  0  0  0
 13 30  1  0  0  0  0
M  END
> <Name>
IA_206.cdx

> <SourceTag>
IA_206

> <Gold.Version>
5.2

> <Gold.Id.Protein>
6HGV|6HGV_protein|mol2

> <Gold.Goldscore.Fitness>
49.5252

> <Gold.Goldscore.Internal.Vdw>
-1.2699

> <Gold.Goldscore.Internal.Torsion>
-3.4248

> <Gold.Goldscore.External.Vdw>
36.5054

> <Gold.Goldscore.Internal.HBond>
0.0000

> <Gold.Goldscore.External.HBond>
0.0000

> <Gold.Goldscore.Internal.Correction>
-4.0250

> <Gold.Goldscore.Internal.Vdw.Weighted>
-1.2699

> <Gold.Goldscore.Internal.Torsion.Weighted>
-3.4248

> <Gold.Goldscore.External.Vdw.Weighted>
50.1949

> <Gold.Goldscore.Internal.HBond.Weighted>
0.0000

> <Gold.Goldscore.External.HBond.Weighted>
0.0000

> <Gold.Goldscore.Internal.Correction.Weighted>
-4.0250

> <Gold.Protein.RotatedTorsions>
[ 3781 1176 1175 1172 ] final  114.69 input   60.00 | X-H torsion
[ 3847 1247 1246 1244 ] final  111.14 input   60.00 | X-H torsion
[ 4507 1931 1930 1928 ] final  -64.80 input   60.00 | X-H torsion
[ 3677 1070 1069 1066 ] final -113.27 input   60.00 | X-H torsion
[ 3525  925  924  922 ] final  135.04 input   59.99 | X-H torsion
[ 4531 1957 1955 1953 ] final  -45.07 input   60.00 | X-H torsion

> <Gold.Protein.ActiveResidues>
 PHE267  PRO268  MET310  ASP335  TRP336  MET339  TYR343  THR360  PRO361  ILE363 
 PRO371  SER374  ILE375  ASN378  PHE381  TYR383  GLN384  PHE387  LEU408  LEU417 
 MET419  LEU428  TYR466  MET469  ASN472  ASP496  VAL498  LEU499  MET503  HIS524 
 TRP525 

> <Gold.Protein.RotatedAtoms>
   -2.0627  -30.2495  -30.0966 H   0  0  0  0  0  0  0  0  0  0  0  0  # atno 3525 bound_to 925 
  -11.5494  -23.6468  -31.4470 H   0  0  0  0  0  0  0  0  0  0  0  0  # atno 3677 bound_to 1070
   -9.9120  -37.1308  -32.3721 H   0  0  0  0  0  0  0  0  0  0  0  0  # atno 3781 bound_to 1176
  -14.3401  -28.4187  -37.7070 H   0  0  0  0  0  0  0  0  0  0  0  0  # atno 3847 bound_to 1247
  -13.6908  -25.1819  -39.9826 H   0  0  0  0  0  0  0  0  0  0  0  0  # atno 4507 bound_to 1931
   -2.2175  -32.1961  -36.8053 H   0  0  0  0  0  0  0  0  0  0  0  0  # atno 4531 bound_to 1957
  -10.7837  -37.1952  -33.7447 LP  0  0  0  0  0  0  0  0  0  0  0  0  # atno 5205 bound_to 1176
   -9.4158  -36.3054  -33.6838 LP  0  0  0  0  0  0  0  0  0  0  0  0  # atno 5206 bound_to 1176
  -15.8150  -28.6180  -37.0491 LP  0  0  0  0  0  0  0  0  0  0  0  0  # atno 5215 bound_to 1247
  -15.4153  -27.1980  -37.7493 LP  0  0  0  0  0  0  0  0  0  0  0  0  # atno 5216 bound_to 1247
  -12.8210  -23.8149  -40.1330 LP  0  0  0  0  0  0  0  0  0  0  0  0  # atno 5217 bound_to 1931
  -12.6786  -24.7331  -38.7902 LP  0  0  0  0  0  0  0  0  0  0  0  0  # atno 5218 bound_to 1931
  -11.4895  -22.2199  -30.6668 LP  0  0  0  0  0  0  0  0  0  0  0  0  # atno 5224 bound_to 1070
  -12.8180  -23.1623  -30.5503 LP  0  0  0  0  0  0  0  0  0  0  0  0  # atno 5225 bound_to 1070

$$$$
IA_85.cdx|SeH_inactivess_minimized|sdf|163|dock5
  -GOLD-   4172122253D 1   1.00000     0.00000

 38 37  0  0  0  0  0  0  0  0  1 V2000
  -22.5781  -22.7141  -39.1573 C   0  0  0  0  0  0  0  0  0  0  0  0
  -10.0229  -25.5729  -34.9365 C   0  0  0  0  0  0  0  0  0  0  0  0
  -11.5096  -25.8223  -34.7377 C   0  0  0  0  0  0  0  0  0  0  0  0
  -12.3042  -25.5128  -36.0072 C   0  0  0  0  0  0  0  0  0  0  0  0
  -13.7900  -25.8268  -35.8204 C   0  0  0  0  0  0  0  0  0  0  0  0
  -14.6753  -25.2828  -36.9460 C   0  0  0  0  0  0  0  0  0  0  0  0
  -16.1856  -25.4462  -36.7446 C   0  0  0  0  0  0  0  0  0  0  0  0
  -17.0201  -24.7029  -37.7902 C   0  0  0  0  0  0  0  0  0  0  0  0
  -18.5241  -24.9690  -37.6644 C   0  0  0  0  0  0  0  0  0  0  0  0
  -19.3749  -24.0762  -38.5737 C   0  0  0  0  0  0  0  0  0  0  0  0
  -20.8646  -24.3902  -38.4675 C   0  0  0  0  0  0  0  0  0  0  0  0
  -23.1929  -22.2118  -40.2902 N   0  0  0  0  0  0  0  0  0  0  0  0
  -21.6448  -23.7023  -39.4592 N   0  0  0  0  0  0  0  0  0  0  0  0
  -22.8429  -22.3172  -38.0239 O   0  0  0  0  0  0  0  0  0  0  0  0
   -9.4802  -25.6603  -33.9899 H   0  0  0  0  0  0  0  0  0  0  0  0
   -9.5963  -26.2903  -35.6447 H   0  0  0  0  0  0  0  0  0  0  0  0
   -9.8570  -24.5659  -35.3318 H   0  0  0  0  0  0  0  0  0  0  0  0
  -11.6626  -26.8683  -34.4477 H   0  0  0  0  0  0  0  0  0  0  0  0
  -11.8713  -25.1997  -33.9110 H   0  0  0  0  0  0  0  0  0  0  0  0
  -11.9057  -26.1013  -36.8425 H   0  0  0  0  0  0  0  0  0  0  0  0
  -12.1727  -24.4551  -36.2621 H   0  0  0  0  0  0  0  0  0  0  0  0
  -14.1328  -25.4416  -34.8532 H   0  0  0  0  0  0  0  0  0  0  0  0
  -13.9239  -26.9154  -35.7816 H   0  0  0  0  0  0  0  0  0  0  0  0
  -14.4585  -24.2160  -37.0835 H   0  0  0  0  0  0  0  0  0  0  0  0
  -14.3872  -25.7773  -37.8821 H   0  0  0  0  0  0  0  0  0  0  0  0
  -16.4374  -25.0654  -35.7468 H   0  0  0  0  0  0  0  0  0  0  0  0
  -16.4408  -26.5111  -36.7411 H   0  0  0  0  0  0  0  0  0  0  0  0
  -16.8534  -23.6241  -37.6816 H   0  0  0  0  0  0  0  0  0  0  0  0
  -16.6920  -24.9754  -38.7996 H   0  0  0  0  0  0  0  0  0  0  0  0
  -18.7257  -26.0254  -37.8778 H   0  0  0  0  0  0  0  0  0  0  0  0
  -18.8145  -24.7965  -36.6205 H   0  0  0  0  0  0  0  0  0  0  0  0
  -19.0555  -24.1883  -39.6160 H   0  0  0  0  0  0  0  0  0  0  0  0
  -19.2188  -23.0265  -38.2969 H   0  0  0  0  0  0  0  0  0  0  0  0
  -21.2449  -24.0786  -37.4897 H   0  0  0  0  0  0  0  0  0  0  0  0
  -21.0504  -25.4630  -38.5805 H   0  0  0  0  0  0  0  0  0  0  0  0
  -23.8969  -21.4836  -40.2360 H   0  0  0  0  0  0  0  0  0  0  0  0
  -22.9552  -22.5579  -41.2138 H   0  0  0  0  0  0  0  0  0  0  0  0
  -21.5074  -23.9515  -40.4374 H   0  0  0  0  0  0  0  0  0  0  0  0
  1 12  1  0  0  0  0
  1 13  1  0  0  0  0
  1 14  2  0  0  0  0
  2  3  1  0  0  0  0
  3  4  1  0  0  0  0
  4  5  1  0  0  0  0
  5  6  1  0  0  0  0
  6  7  1  0  0  0  0
  7  8  1  0  0  0  0
  8  9  1  0  0  0  0
  9 10  1  0  0  0  0
 10 11  1  0  0  0  0
 11 13  1  0  0  0  0
  2 15  1  0  0  0  0
  2 16  1  0  0  0  0
  2 17  1  0  0  0  0
  3 18  1  0  0  0  0
  3 19  1  0  0  0  0
  4 20  1  0  0  0  0
  4 21  1  0  0  0  0
  5 22  1  0  0  0  0
  5 23  1  0  0  0  0
  6 24  1  0  0  0  0
  6 25  1  0  0  0  0
  7 26  1  0  0  0  0
  7 27  1  0  0  0  0
  8 28  1  0  0  0  0
  8 29  1  0  0  0  0
  9 30  1  0  0  0  0
  9 31  1  0  0  0  0
 10 32  1  0  0  0  0
 10 33  1  0  0  0  0
 11 34  1  0  0  0  0
 11 35  1  0  0  0  0
 12 36  1  0  0  0  0
 12 37  1  0  0  0  0
 13 38  1  0  0  0  0
M  END
> <Name>
IA_85.cdx

> <SourceTag>
IA_85

> <Gold.Version>
5.2

> <Gold.Id.Protein>
6HGV|6HGV_protein|mol2

> <Gold.Goldscore.Fitness>
47.6795

> <Gold.Goldscore.Internal.Vdw>
-3.3907

> <Gold.Goldscore.Internal.Torsion>
-1.7295

> <Gold.Goldscore.External.Vdw>
36.1739

> <Gold.Goldscore.Internal.HBond>
0.0000

> <Gold.Goldscore.External.HBond>
0.0370

> <Gold.Goldscore.Internal.Correction>
-3.0236

> <Gold.Goldscore.Hbonds>
donor molecule, donor type, donor heavy atom, donor atom, acceptor molecule, acceptor atom, score
      P1  H  2428  4927       L1    14  0.02

> <Gold.Goldscore.Internal.Vdw.Weighted>
-3.3907

> <Gold.Goldscore.Internal.Torsion.Weighted>
-1.7295

> <Gold.Goldscore.External.Vdw.Weighted>
49.7391

> <Gold.Goldscore.Internal.HBond.Weighted>
0.0000

> <Gold.Goldscore.External.HBond.Weighted>
0.0370

> <Gold.Goldscore.Internal.Correction.Weighted>
-3.0236

> <Gold.Protein.RotatedTorsions>
[ 3781 1176 1175 1172 ] final   44.32 input   60.00 | X-H torsion
[ 3847 1247 1246 1244 ] final   23.81 input   60.00 | X-H torsion
[ 4507 1931 1930 1928 ] final  100.70 input   60.00 | X-H torsion
[ 3677 1070 1069 1066 ] final -101.87 input   60.00 | X-H torsion
[ 3525  925  924  922 ] final   49.23 input   59.99 | X-H torsion
[ 4531 1957 1955 1953 ] final  -49.36 input   60.00 | X-H torsion

> <Gold.Protein.ActiveResidues>
 PHE267  PRO268  MET310  ASP335  TRP336  MET339  TYR343  THR360  PRO361  ILE363 
 PRO371  SER374  ILE375  ASN378  PHE381  TYR383  GLN384  PHE387  LEU408  LEU417 
 MET419  LEU428  TYR466  MET469  ASN472  ASP496  VAL498  LEU499  MET503  HIS524 
 TRP525 

> <Gold.Protein.RotatedAtoms>
   -2.9662  -29.7852  -30.8667 H   0  0  0  0  0  0  0  0  0  0  0  0  # atno 3525 bound_to 925 
  -11.7079  -23.7411  -31.4227 H   0  0  0  0  0  0  0  0  0  0  0  0  # atno 3677 bound_to 1070
  -10.7331  -37.4440  -32.9982 H   0  0  0  0  0  0  0  0  0  0  0  0  # atno 3781 bound_to 1176
  -15.3781  -28.9086  -37.1122 H   0  0  0  0  0  0  0  0  0  0  0  0  # atno 3847 bound_to 1247
  -12.4363  -24.1269  -39.1091 H   0  0  0  0  0  0  0  0  0  0  0  0  # atno 4507 bound_to 1931
   -2.1488  -32.1956  -36.8184 H   0  0  0  0  0  0  0  0  0  0  0  0  # atno 4531 bound_to 1957
  -10.0179  -36.5351  -34.1429 LP  0  0  0  0  0  0  0  0  0  0  0  0  # atno 5205 bound_to 1176
   -9.3548  -36.6500  -32.6551 LP  0  0  0  0  0  0  0  0  0  0  0  0  # atno 5206 bound_to 1176
  -15.8411  -27.3989  -37.5053 LP  0  0  0  0  0  0  0  0  0  0  0  0  # atno 5215 bound_to 1247
  -14.3439  -27.9237  -37.8922 LP  0  0  0  0  0  0  0  0  0  0  0  0  # atno 5216 bound_to 1247
  -13.4495  -25.3814  -39.3269 LP  0  0  0  0  0  0  0  0  0  0  0  0  # atno 5217 bound_to 1931
  -13.3134  -24.2290  -40.4759 LP  0  0  0  0  0  0  0  0  0  0  0  0  # atno 5218 bound_to 1931
  -11.3535  -22.2913  -30.7743 LP  0  0  0  0  0  0  0  0  0  0  0  0  # atno 5224 bound_to 1070
  -12.7943  -22.9960  -30.4673 LP  0  0  0  0  0  0  0  0  0  0  0  0  # atno 5225 bound_to 1070

$$$$
IA_108.cdx|SeH_inactivess_minimized|sdf|10|dock8
  -GOLD-   4172118453D 1   1.00000     0.00000

 29 29  0  0  0  0  0  0  0  0  1 V2000
  -17.9388  -25.3308  -36.2735 C   0  0  0  0  0  0  0  0  0  0  0  0
  -17.0153  -25.1035  -37.0061 C   0  0  0  0  0  0  0  0  0  0  0  0
  -13.5961  -25.5561  -37.2447 C   0  0  0  0  0  0  0  0  0  0  0  0
  -11.1315  -26.8888  -33.5009 C   0  0  0  0  0  0  0  0  0  0  0  0
  -10.8599  -25.4279  -33.8499 C   0  0  0  0  0  0  0  0  0  0  0  0
  -12.0758  -27.5477  -34.5028 C   0  0  0  0  0  0  0  0  0  0  0  0
  -10.3586  -25.2764  -35.2867 C   0  0  0  0  0  0  0  0  0  0  0  0
  -11.5714  -27.3915  -35.9381 C   0  0  0  0  0  0  0  0  0  0  0  0
  -11.2910  -25.9307  -36.3149 C   0  0  0  0  0  0  0  0  0  0  0  0
  -15.8858  -24.8235  -37.8962 C   0  0  0  0  0  0  0  0  0  0  0  0
  -12.5461  -25.1818  -36.4098 N   0  0  0  0  0  0  0  0  0  0  0  0
  -14.6659  -24.6706  -37.1390 N   0  0  0  0  0  0  0  0  0  0  0  0
  -13.5823  -26.5418  -37.9808 O   0  0  0  0  0  0  0  0  0  0  0  0
  -18.7580  -25.5330  -35.6237 H   0  0  0  0  0  0  0  0  0  0  0  0
  -10.1849  -27.4419  -33.4677 H   0  0  0  0  0  0  0  0  0  0  0  0
  -11.5690  -26.9475  -32.4954 H   0  0  0  0  0  0  0  0  0  0  0  0
  -11.7746  -24.8403  -33.7159 H   0  0  0  0  0  0  0  0  0  0  0  0
  -10.1124  -25.0199  -33.1591 H   0  0  0  0  0  0  0  0  0  0  0  0
  -12.1745  -28.6137  -34.2658 H   0  0  0  0  0  0  0  0  0  0  0  0
  -13.0742  -27.1060  -34.4140 H   0  0  0  0  0  0  0  0  0  0  0  0
  -10.2400  -24.2038  -35.5203 H   0  0  0  0  0  0  0  0  0  0  0  0
   -9.3479  -25.7107  -35.3675 H   0  0  0  0  0  0  0  0  0  0  0  0
  -10.6574  -27.9947  -36.0707 H   0  0  0  0  0  0  0  0  0  0  0  0
  -12.3133  -27.8205  -36.6341 H   0  0  0  0  0  0  0  0  0  0  0  0
  -10.8385  -25.8861  -37.3023 H   0  0  0  0  0  0  0  0  0  0  0  0
  -16.0695  -23.9081  -38.4672 H   0  0  0  0  0  0  0  0  0  0  0  0
  -15.7630  -25.6397  -38.6152 H   0  0  0  0  0  0  0  0  0  0  0  0
  -12.6561  -24.3490  -35.8390 H   0  0  0  0  0  0  0  0  0  0  0  0
  -14.6062  -23.9096  -36.4699 H   0  0  0  0  0  0  0  0  0  0  0  0
  1  2  3  0  0  0  0
  2 10  1  0  0  0  0
  3 11  1  0  0  0  0
  3 12  1  0  0  0  0
  3 13  2  0  0  0  0
  4  5  1  0  0  0  0
  4  6  1  0  0  0  0
  5  7  1  0  0  0  0
  6  8  1  0  0  0  0
  7  9  1  0  0  0  0
  8  9  1  0  0  0  0
  9 11  1  0  0  0  0
 10 12  1  0  0  0  0
  1 14  1  0  0  0  0
  4 15  1  0  0  0  0
  4 16  1  0  0  0  0
  5 17  1  0  0  0  0
  5 18  1  0  0  0  0
  6 19  1  0  0  0  0
  6 20  1  0  0  0  0
  7 21  1  0  0  0  0
  7 22  1  0  0  0  0
  8 23  1  0  0  0  0
  8 24  1  0  0  0  0
  9 25  1  0  0  0  0
 10 26  1  0  0  0  0
 10 27  1  0  0  0  0
 11 28  1  0  0  0  0
 12 29  1  0  0  0  0
M  END
> <Name>
IA_108.cdx

> <SourceTag>
IA_108

> <Gold.Version>
5.2

> <Gold.Id.Protein>
6HGV|6HGV_protein|mol2

> <Gold.Goldscore.Fitness>
43.6560

> <Gold.Goldscore.Internal.Vdw>
-1.9988

> <Gold.Goldscore.Internal.Torsion>
-1.1904

> <Gold.Goldscore.External.Vdw>
28.3849

> <Gold.Goldscore.Internal.HBond>
0.0000

> <Gold.Goldscore.External.HBond>
6.3074

> <Gold.Goldscore.Internal.Correction>
-1.5085

> <Gold.Goldscore.Hbonds>
donor molecule, donor type, donor heavy atom, donor atom, acceptor molecule, acceptor atom, score
      P1  H  1247  3847       L1    13  0.25
      L1  H    11    28       P1   853  0.24
      L1  H    12    29       P1   853  0.73

> <Gold.Goldscore.Internal.Vdw.Weighted>
-1.9988

> <Gold.Goldscore.Internal.Torsion.Weighted>
-1.1904

> <Gold.Goldscore.External.Vdw.Weighted>
39.0292

> <Gold.Goldscore.Internal.HBond.Weighted>
0.0000

> <Gold.Goldscore.External.HBond.Weighted>
6.3074

> <Gold.Goldscore.Internal.Correction.Weighted>
-1.5085

> <Gold.Protein.RotatedTorsions>
[ 3781 1176 1175 1172 ] final -170.54 input   60.00 | X-H torsion
[ 3847 1247 1246 1244 ] final  159.14 input   60.00 | X-H torsion
[ 4507 1931 1930 1928 ] final  119.06 input   60.00 | X-H torsion
[ 3677 1070 1069 1066 ] final  -88.90 input   60.00 | X-H torsion
[ 3525  925  924  922 ] final  -87.98 input   59.99 | X-H torsion
[ 4531 1957 1955 1953 ] final   12.36 input   60.00 | X-H torsion

> <Gold.Protein.ActiveResidues>
 PHE267  PRO268  MET310  ASP335  TRP336  MET339  TYR343  THR360  PRO361  ILE363 
 PRO371  SER374  ILE375  ASN378  PHE381  TYR383  GLN384  PHE387  LEU408  LEU417 
 MET419  LEU428  TYR466  MET469  ASN472  ASP496  VAL498  LEU499  MET503  HIS524 
 TRP525 

> <Gold.Protein.RotatedAtoms>
   -3.4575  -29.7239  -29.1950 H   0  0  0  0  0  0  0  0  0  0  0  0  # atno 3525 bound_to 925 
  -11.8994  -23.8132  -31.3696 H   0  0  0  0  0  0  0  0  0  0  0  0  # atno 3677 bound_to 1070
   -9.2468  -36.4529  -32.9969 H   0  0  0  0  0  0  0  0  0  0  0  0  # atno 3781 bound_to 1176
  -14.4505  -27.7015  -37.9380 H   0  0  0  0  0  0  0  0  0  0  0  0  # atno 3847 bound_to 1247
  -12.4436  -23.9418  -39.3435 H   0  0  0  0  0  0  0  0  0  0  0  0  # atno 4507 bound_to 1931
   -2.9743  -32.6635  -36.6695 H   0  0  0  0  0  0  0  0  0  0  0  0  # atno 4531 bound_to 1957
  -10.5101  -37.4204  -32.6561 LP  0  0  0  0  0  0  0  0  0  0  0  0  # atno 5205 bound_to 1176
  -10.3594  -36.7628  -34.1432 LP  0  0  0  0  0  0  0  0  0  0  0  0  # atno 5206 bound_to 1176
  -15.1433  -28.9641  -37.1804 LP  0  0  0  0  0  0  0  0  0  0  0  0  # atno 5215 bound_to 1247
  -15.9758  -27.5742  -37.3853 LP  0  0  0  0  0  0  0  0  0  0  0  0  # atno 5216 bound_to 1247
  -13.2700  -25.3211  -39.0932 LP  0  0  0  0  0  0  0  0  0  0  0  0  # atno 5217 bound_to 1931
  -13.4856  -24.4758  -40.4736 LP  0  0  0  0  0  0  0  0  0  0  0  0  # atno 5218 bound_to 1931
  -11.2280  -22.4066  -30.9017 LP  0  0  0  0  0  0  0  0  0  0  0  0  # atno 5224 bound_to 1070
  -12.7270  -22.8081  -30.3933 LP  0  0  0  0  0  0  0  0  0  0  0  0  # atno 5225 bound_to 1070

$$$$
IA_170.cdx|SeH_inactivess_minimized|sdf|73|dock8
  -GOLD-   4172120133D 1   1.00000     0.00000

 32 33  0  0  0  0  0  0  0  0  1 V2000
  -10.9720  -27.4958  -32.9798 C   0  0  0  0  0  0  0  0  0  0  0  0
   -9.3453  -27.6687  -34.7428 C   0  0  0  0  0  0  0  0  0  0  0  0
  -17.0099  -25.0519  -36.7254 C   0  0  0  0  0  0  0  0  0  0  0  0
  -15.3620  -23.7651  -37.9140 C   0  0  0  0  0  0  0  0  0  0  0  0
  -10.8496  -28.8650  -32.8059 C   0  0  0  0  0  0  0  0  0  0  0  0
   -9.2955  -29.0301  -34.4898 C   0  0  0  0  0  0  0  0  0  0  0  0
  -17.9494  -24.1135  -37.1208 C   0  0  0  0  0  0  0  0  0  0  0  0
  -16.3754  -22.8843  -38.2564 C   0  0  0  0  0  0  0  0  0  0  0  0
  -10.2021  -26.8940  -33.9688 C   0  0  0  0  0  0  0  0  0  0  0  0
  -15.6937  -24.8672  -37.1339 C   0  0  0  0  0  0  0  0  0  0  0  0
  -12.4143  -25.8189  -35.5178 C   0  0  0  0  0  0  0  0  0  0  0  0
  -10.2959  -25.4136  -34.2006 C   0  0  0  0  0  0  0  0  0  0  0  0
  -14.6347  -25.8533  -36.7334 C   0  0  0  0  0  0  0  0  0  0  0  0
  -10.0282  -29.6504  -33.5381 N   0  0  0  0  0  0  0  0  0  0  0  0
  -17.6650  -23.0305  -37.8784 N   0  0  0  0  0  0  0  0  0  0  0  0
  -11.5886  -25.0287  -34.7372 N   0  0  0  0  0  0  0  0  0  0  0  0
  -13.6042  -25.2413  -35.9175 N   0  0  0  0  0  0  0  0  0  0  0  0
  -12.0794  -27.3935  -36.0034 S   0  0  0  0  0  0  0  0  0  0  0  0
  -11.6505  -26.9197  -32.3597 H   0  0  0  0  0  0  0  0  0  0  0  0
   -8.7320  -27.2284  -35.5214 H   0  0  0  0  0  0  0  0  0  0  0  0
  -17.3008  -25.9007  -36.1157 H   0  0  0  0  0  0  0  0  0  0  0  0
  -14.3445  -23.5939  -38.2483 H   0  0  0  0  0  0  0  0  0  0  0  0
  -11.4293  -29.3826  -32.0485 H   0  0  0  0  0  0  0  0  0  0  0  0
   -8.6432  -29.6780  -35.0660 H   0  0  0  0  0  0  0  0  0  0  0  0
  -18.9896  -24.2114  -36.8275 H   0  0  0  0  0  0  0  0  0  0  0  0
  -16.1684  -22.0092  -38.8634 H   0  0  0  0  0  0  0  0  0  0  0  0
  -10.1427  -24.8657  -33.2645 H   0  0  0  0  0  0  0  0  0  0  0  0
   -9.5276  -25.0765  -34.9043 H   0  0  0  0  0  0  0  0  0  0  0  0
  -15.0722  -26.6786  -36.1612 H   0  0  0  0  0  0  0  0  0  0  0  0
  -14.1502  -26.2887  -37.6137 H   0  0  0  0  0  0  0  0  0  0  0  0
  -11.8974  -24.0906  -34.5088 H   0  0  0  0  0  0  0  0  0  0  0  0
  -13.7741  -24.2894  -35.6070 H   0  0  0  0  0  0  0  0  0  0  0  0
  1  5  1  0  0  0  0
  1  9  2  0  0  0  0
  2  6  2  0  0  0  0
  2  9  1  0  0  0  0
  3  7  1  0  0  0  0
  3 10  2  0  0  0  0
  4  8  2  0  0  0  0
  4 10  1  0  0  0  0
  5 14  2  0  0  0  0
  6 14  1  0  0  0  0
  7 15  2  0  0  0  0
  8 15  1  0  0  0  0
  9 12  1  0  0  0  0
 10 13  1  0  0  0  0
 11 16  1  0  0  0  0
 11 17  1  0  0  0  0
 11 18  2  0  0  0  0
 12 16  1  0  0  0  0
 13 17  1  0  0  0  0
  1 19  1  0  0  0  0
  2 20  1  0  0  0  0
  3 21  1  0  0  0  0
  4 22  1  0  0  0  0
  5 23  1  0  0  0  0
  6 24  1  0  0  0  0
  7 25  1  0  0  0  0
  8 26  1  0  0  0  0
 12 27  1  0  0  0  0
 12 28  1  0  0  0  0
 13 29  1  0  0  0  0
 13 30  1  0  0  0  0
 16 31  1  0  0  0  0
 17 32  1  0  0  0  0
M  END
> <Name>
IA_170.cdx

> <SourceTag>
IA_170

> <Gold.Version>
5.2

> <Gold.Id.Protein>
6HGV|6HGV_protein|mol2

> <Gold.Goldscore.Fitness>
55.8081

> <Gold.Goldscore.Internal.Vdw>
-0.9055

> <Gold.Goldscore.Internal.Torsion>
-1.9194

> <Gold.Goldscore.External.Vdw>
39.3388

> <Gold.Goldscore.Internal.HBond>
0.0000

> <Gold.Goldscore.External.HBond>
4.3283

> <Gold.Goldscore.Internal.Correction>
-0.2139

> <Gold.Goldscore.Hbonds>
donor molecule, donor type, donor heavy atom, donor atom, acceptor molecule, acceptor atom, score
      L1  H    17    32       P1   853  0.72

> <Gold.Goldscore.Internal.Vdw.Weighted>
-0.9055

> <Gold.Goldscore.Internal.Torsion.Weighted>
-1.9194

> <Gold.Goldscore.External.Vdw.Weighted>
54.0908

> <Gold.Goldscore.Internal.HBond.Weighted>
0.0000

> <Gold.Goldscore.External.HBond.Weighted>
4.3283

> <Gold.Goldscore.Internal.Correction.Weighted>
-0.2139

> <Gold.Protein.RotatedTorsions>
[ 3781 1176 1175 1172 ] final   85.73 input   60.00 | X-H torsion
[ 3847 1247 1246 1244 ] final   39.86 input   60.00 | X-H torsion
[ 4507 1931 1930 1928 ] final   66.05 input   60.00 | X-H torsion
[ 3677 1070 1069 1066 ] final -101.90 input   60.00 | X-H torsion
[ 3525  925  924  922 ] final   49.25 input   59.99 | X-H torsion
[ 4531 1957 1955 1953 ] final   86.52 input   60.00 | X-H torsion

> <Gold.Protein.ActiveResidues>
 PHE267  PRO268  MET310  ASP335  TRP336  MET339  TYR343  THR360  PRO361  ILE363 
 PRO371  SER374  ILE375  ASN378  PHE381  TYR383  GLN384  PHE387  LEU408  LEU417 
 MET419  LEU428  TYR466  MET469  ASN472  ASP496  VAL498  LEU499  MET503  HIS524 
 TRP525 

> <Gold.Protein.RotatedAtoms>
   -2.9659  -29.7853  -30.8667 H   0  0  0  0  0  0  0  0  0  0  0  0  # atno 3525 bound_to 925 
  -11.7075  -23.7409  -31.4228 H   0  0  0  0  0  0  0  0  0  0  0  0  # atno 3677 bound_to 1070
  -10.3073  -37.3463  -32.5007 H   0  0  0  0  0  0  0  0  0  0  0  0  # atno 3781 bound_to 1176
  -15.1334  -28.9595  -37.1888 H   0  0  0  0  0  0  0  0  0  0  0  0  # atno 3847 bound_to 1247
  -12.5918  -24.5825  -38.8282 H   0  0  0  0  0  0  0  0  0  0  0  0  # atno 4507 bound_to 1931
   -2.8409  -33.7837  -36.7143 H   0  0  0  0  0  0  0  0  0  0  0  0  # atno 4531 bound_to 1957
  -10.5515  -36.9246  -34.0533 LP  0  0  0  0  0  0  0  0  0  0  0  0  # atno 5205 bound_to 1176
   -9.2500  -36.3588  -33.2456 LP  0  0  0  0  0  0  0  0  0  0  0  0  # atno 5206 bound_to 1176
  -15.9808  -27.5835  -37.3798 LP  0  0  0  0  0  0  0  0  0  0  0  0  # atno 5215 bound_to 1247
  -14.4506  -27.6880  -37.9405 LP  0  0  0  0  0  0  0  0  0  0  0  0  # atno 5216 bound_to 1247
  -13.6702  -25.2739  -39.8318 LP  0  0  0  0  0  0  0  0  0  0  0  0  # atno 5217 bound_to 1931
  -12.9361  -23.8777  -40.2539 LP  0  0  0  0  0  0  0  0  0  0  0  0  # atno 5218 bound_to 1931
  -11.3538  -22.2910  -30.7740 LP  0  0  0  0  0  0  0  0  0  0  0  0  # atno 5224 bound_to 1070
  -12.7944  -22.9964  -30.4675 LP  0  0  0  0  0  0  0  0  0  0  0  0  # atno 5225 bound_to 1070

$$$$
IA_197.cdx|SeH_inactivess_minimized|sdf|96|dock3
  -GOLD-   4172120333D 1   1.00000     0.00000

 28 29  0  0  0  0  0  0  0  0  1 V2000
   -7.7770  -30.1900  -33.4059 C   0  0  0  0  0  0  0  0  0  0  0  0
  -11.1801  -25.1760  -34.5120 C   0  0  0  0  0  0  0  0  0  0  0  0
   -3.7523  -30.9166  -34.1800 C   0  0  0  0  0  0  0  0  0  0  0  0
   -9.9083  -25.4288  -33.9981 C   0  0  0  0  0  0  0  0  0  0  0  0
  -11.6583  -25.9226  -35.5890 C   0  0  0  0  0  0  0  0  0  0  0  0
   -4.2203  -29.6026  -34.1707 C   0  0  0  0  0  0  0  0  0  0  0  0
   -4.4879  -31.9144  -34.8192 C   0  0  0  0  0  0  0  0  0  0  0  0
   -9.1147  -26.4283  -34.5610 C   0  0  0  0  0  0  0  0  0  0  0  0
  -10.8645  -26.9220  -36.1519 C   0  0  0  0  0  0  0  0  0  0  0  0
   -5.4241  -29.2866  -34.8005 C   0  0  0  0  0  0  0  0  0  0  0  0
   -5.6917  -31.5984  -35.4490 C   0  0  0  0  0  0  0  0  0  0  0  0
   -9.5928  -27.1748  -35.6379 C   0  0  0  0  0  0  0  0  0  0  0  0
   -6.1597  -30.2845  -35.4397 C   0  0  0  0  0  0  0  0  0  0  0  0
   -8.2130  -29.1236  -35.3511 C   0  0  0  0  0  0  0  0  0  0  0  0
   -7.2197  -31.0331  -32.8357 N   0  0  0  0  0  0  0  0  0  0  0  0
   -8.4159  -29.2192  -34.0743 N   0  0  0  0  0  0  0  0  0  0  0  0
   -8.8181  -28.1490  -36.1886 O   0  0  0  0  0  0  0  0  0  0  0  0
   -7.3689  -29.9682  -36.0706 O   0  0  0  0  0  0  0  0  0  0  0  0
  -11.7986  -24.3983  -34.0736 H   0  0  0  0  0  0  0  0  0  0  0  0
   -2.8148  -31.1629  -33.6901 H   0  0  0  0  0  0  0  0  0  0  0  0
   -9.5357  -24.8474  -33.1596 H   0  0  0  0  0  0  0  0  0  0  0  0
  -12.6488  -25.7252  -35.9885 H   0  0  0  0  0  0  0  0  0  0  0  0
   -3.6477  -28.8254  -33.6728 H   0  0  0  0  0  0  0  0  0  0  0  0
   -4.1227  -32.9375  -34.8261 H   0  0  0  0  0  0  0  0  0  0  0  0
   -8.1243  -26.6192  -34.1569 H   0  0  0  0  0  0  0  0  0  0  0  0
  -11.2415  -27.4992  -36.9918 H   0  0  0  0  0  0  0  0  0  0  0  0
   -5.7839  -28.2614  -34.7884 H   0  0  0  0  0  0  0  0  0  0  0  0
   -6.2614  -32.3803  -35.9439 H   0  0  0  0  0  0  0  0  0  0  0  0
  1 15  3  0  0  0  0
  1 16  1  0  0  0  0
  2  4  2  0  0  0  0
  2  5  1  0  0  0  0
  3  6  2  0  0  0  0
  3  7  1  0  0  0  0
  4  8  1  0  0  0  0
  5  9  2  0  0  0  0
  6 10  1  0  0  0  0
  7 11  2  0  0  0  0
  8 12  2  0  0  0  0
  9 12  1  0  0  0  0
 10 13  2  0  0  0  0
 11 13  1  0  0  0  0
 12 17  1  0  0  0  0
 13 18  1  0  0  0  0
 14 16  2  0  0  0  0
 14 17  1  0  0  0  0
 14 18  1  0  0  0  0
  2 19  1  0  0  0  0
  3 20  1  0  0  0  0
  4 21  1  0  0  0  0
  5 22  1  0  0  0  0
  6 23  1  0  0  0  0
  7 24  1  0  0  0  0
  8 25  1  0  0  0  0
  9 26  1  0  0  0  0
 10 27  1  0  0  0  0
 11 28  1  0  0  0  0
M  END
> <Name>
IA_197.cdx

> <SourceTag>
IA_197

> <Gold.Version>
5.2

> <Gold.Id.Protein>
6HGV|6HGV_protein|mol2

> <Gold.Goldscore.Fitness>
49.2221

> <Gold.Goldscore.Internal.Vdw>
0.2493

> <Gold.Goldscore.Internal.Torsion>
-7.7107

> <Gold.Goldscore.External.Vdw>
39.1921

> <Gold.Goldscore.Internal.HBond>
0.0000

> <Gold.Goldscore.External.HBond>
0.0000

> <Gold.Goldscore.Internal.Correction>
-2.7943

> <Gold.Goldscore.Internal.Vdw.Weighted>
0.2493

> <Gold.Goldscore.Internal.Torsion.Weighted>
-7.7107

> <Gold.Goldscore.External.Vdw.Weighted>
53.8892

> <Gold.Goldscore.Internal.HBond.Weighted>
0.0000

> <Gold.Goldscore.External.HBond.Weighted>
0.0000

> <Gold.Goldscore.Internal.Correction.Weighted>
-2.7943

> <Gold.Protein.RotatedTorsions>
[ 3781 1176 1175 1172 ] final  -64.02 input   60.00 | X-H torsion
[ 3847 1247 1246 1244 ] final   72.39 input   60.00 | X-H torsion
[ 4507 1931 1930 1928 ] final   42.86 input   60.00 | X-H torsion
[ 3677 1070 1069 1066 ] final  -95.62 input   60.00 | X-H torsion
[ 3525  925  924  922 ] final   60.11 input   59.99 | X-H torsion
[ 4531 1957 1955 1953 ] final  -19.81 input   60.00 | X-H torsion

> <Gold.Protein.ActiveResidues>
 PHE267  PRO268  MET310  ASP335  TRP336  MET339  TYR343  THR360  PRO361  ILE363 
 PRO371  SER374  ILE375  ASN378  PHE381  TYR383  GLN384  PHE387  LEU408  LEU417 
 MET419  LEU428  TYR466  MET469  ASN472  ASP496  VAL498  LEU499  MET503  HIS524 
 TRP525 

> <Gold.Protein.RotatedAtoms>
   -2.8034  -29.8561  -30.8671 H   0  0  0  0  0  0  0  0  0  0  0  0  # atno 3525 bound_to 925 
  -11.7992  -23.7807  -31.4004 H   0  0  0  0  0  0  0  0  0  0  0  0  # atno 3677 bound_to 1070
  -10.1776  -36.6387  -34.1590 H   0  0  0  0  0  0  0  0  0  0  0  0  # atno 3781 bound_to 1176
  -14.6704  -28.8537  -37.4110 H   0  0  0  0  0  0  0  0  0  0  0  0  # atno 3847 bound_to 1247
  -12.7957  -24.8975  -38.7983 H   0  0  0  0  0  0  0  0  0  0  0  0  # atno 4507 bound_to 1931
   -2.6061  -32.3036  -36.7333 H   0  0  0  0  0  0  0  0  0  0  0  0  # atno 4531 bound_to 1957
   -9.2847  -36.5483  -32.8016 LP  0  0  0  0  0  0  0  0  0  0  0  0  # atno 5205 bound_to 1176
  -10.6474  -37.4478  -32.8275 LP  0  0  0  0  0  0  0  0  0  0  0  0  # atno 5206 bound_to 1176
  -16.0680  -28.0576  -37.1642 LP  0  0  0  0  0  0  0  0  0  0  0  0  # atno 5215 bound_to 1247
  -14.8297  -27.3204  -37.9323 LP  0  0  0  0  0  0  0  0  0  0  0  0  # atno 5216 bound_to 1247
  -13.7000  -25.0576  -40.1416 LP  0  0  0  0  0  0  0  0  0  0  0  0  # atno 5217 bound_to 1931
  -12.7010  -23.7768  -39.9743 LP  0  0  0  0  0  0  0  0  0  0  0  0  # atno 5218 bound_to 1931
  -11.2888  -22.3426  -30.8353 LP  0  0  0  0  0  0  0  0  0  0  0  0  # atno 5224 bound_to 1070
  -12.7671  -22.9048  -30.4287 LP  0  0  0  0  0  0  0  0  0  0  0  0  # atno 5225 bound_to 1070

$$$$
IA_173.cdx|SeH_inactivess_minimized|sdf|76|dock3
  -GOLD-   4172120173D 1   1.00000     0.00000

 31 30  0  0  0  0  0  0  0  0  1 V2000
   -9.4163  -27.2383  -34.6696 C   0  0  0  0  0  0  0  0  0  0  0  0
   -5.5379  -29.8639  -35.0092 C   0  0  0  0  0  0  0  0  0  0  0  0
  -11.8262  -30.5939  -32.5910 C   0  0  0  0  0  0  0  0  0  0  0  0
  -11.7521  -25.4765  -36.0555 C   0  0  0  0  0  0  0  0  0  0  0  0
   -6.6546  -29.0975  -34.3146 C   0  0  0  0  0  0  0  0  0  0  0  0
  -11.0680  -29.9026  -33.7153 C   0  0  0  0  0  0  0  0  0  0  0  0
   -8.0104  -29.2998  -34.9803 C   0  0  0  0  0  0  0  0  0  0  0  0
   -9.7607  -29.2756  -33.2457 C   0  0  0  0  0  0  0  0  0  0  0  0
  -11.0897  -25.0455  -34.7608 C   0  0  0  0  0  0  0  0  0  0  0  0
   -9.0770  -28.5528  -34.3115 N   0  0  0  0  0  0  0  0  0  0  0  0
   -8.8583  -26.6045  -35.5627 O   0  0  0  0  0  0  0  0  0  0  0  0
  -10.7152  -26.4813  -33.7310 S   0  0  0  0  0  0  0  0  0  0  0  0
   -5.4677  -29.5833  -36.0650 H   0  0  0  0  0  0  0  0  0  0  0  0
   -4.5766  -29.6407  -34.5352 H   0  0  0  0  0  0  0  0  0  0  0  0
   -5.6984  -30.9447  -34.9494 H   0  0  0  0  0  0  0  0  0  0  0  0
  -12.0735  -29.8872  -31.7924 H   0  0  0  0  0  0  0  0  0  0  0  0
  -12.7621  -31.0154  -32.9717 H   0  0  0  0  0  0  0  0  0  0  0  0
  -11.2413  -31.4117  -32.1592 H   0  0  0  0  0  0  0  0  0  0  0  0
  -12.0135  -24.6153  -36.6796 H   0  0  0  0  0  0  0  0  0  0  0  0
  -11.1057  -26.1439  -36.6356 H   0  0  0  0  0  0  0  0  0  0  0  0
  -12.6778  -26.0196  -35.8375 H   0  0  0  0  0  0  0  0  0  0  0  0
   -6.4085  -28.0294  -34.3299 H   0  0  0  0  0  0  0  0  0  0  0  0
   -6.7020  -29.4045  -33.2631 H   0  0  0  0  0  0  0  0  0  0  0  0
  -11.7059  -29.1171  -34.1368 H   0  0  0  0  0  0  0  0  0  0  0  0
  -10.8723  -30.6260  -34.5157 H   0  0  0  0  0  0  0  0  0  0  0  0
   -7.9749  -28.9485  -36.0164 H   0  0  0  0  0  0  0  0  0  0  0  0
   -8.2954  -30.3566  -34.9885 H   0  0  0  0  0  0  0  0  0  0  0  0
   -9.9572  -28.5551  -32.4455 H   0  0  0  0  0  0  0  0  0  0  0  0
   -9.0724  -30.0341  -32.8597 H   0  0  0  0  0  0  0  0  0  0  0  0
  -11.7491  -24.3738  -34.2027 H   0  0  0  0  0  0  0  0  0  0  0  0
  -10.1587  -24.5105  -34.9712 H   0  0  0  0  0  0  0  0  0  0  0  0
  1 10  1  0  0  0  0
  1 11  2  0  0  0  0
  1 12  1  0  0  0  0
  2  5  1  0  0  0  0
  3  6  1  0  0  0  0
  4  9  1  0  0  0  0
  5  7  1  0  0  0  0
  6  8  1  0  0  0  0
  7 10  1  0  0  0  0
  8 10  1  0  0  0  0
  9 12  1  0  0  0  0
  2 13  1  0  0  0  0
  2 14  1  0  0  0  0
  2 15  1  0  0  0  0
  3 16  1  0  0  0  0
  3 17  1  0  0  0  0
  3 18  1  0  0  0  0
  4 19  1  0  0  0  0
  4 20  1  0  0  0  0
  4 21  1  0  0  0  0
  5 22  1  0  0  0  0
  5 23  1  0  0  0  0
  6 24  1  0  0  0  0
  6 25  1  0  0  0  0
  7 26  1  0  0  0  0
  7 27  1  0  0  0  0
  8 28  1  0  0  0  0
  8 29  1  0  0  0  0
  9 30  1  0  0  0  0
  9 31  1  0  0  0  0
M  END
> <Name>
IA_173.cdx

> <SourceTag>
IA_173

> <Gold.Version>
5.2

> <Gold.Id.Protein>
6HGV|6HGV_protein|mol2

> <Gold.Goldscore.Fitness>
40.3036

> <Gold.Goldscore.Internal.Vdw>
-2.9425

> <Gold.Goldscore.Internal.Torsion>
-1.4399

> <Gold.Goldscore.External.Vdw>
29.5078

> <Gold.Goldscore.Internal.HBond>
0.0000

> <Gold.Goldscore.External.HBond>
0.0000

> <Gold.Goldscore.Internal.Correction>
-4.1128

> <Gold.Goldscore.Internal.Vdw.Weighted>
-2.9425

> <Gold.Goldscore.Internal.Torsion.Weighted>
-1.4399

> <Gold.Goldscore.External.Vdw.Weighted>
40.5732

> <Gold.Goldscore.Internal.HBond.Weighted>
0.0000

> <Gold.Goldscore.External.HBond.Weighted>
0.0000

> <Gold.Goldscore.Internal.Correction.Weighted>
-4.1128

> <Gold.Protein.RotatedTorsions>
[ 3781 1176 1175 1172 ] final -100.54 input   60.00 | X-H torsion
[ 3847 1247 1246 1244 ] final  133.99 input   60.00 | X-H torsion
[ 4507 1931 1930 1928 ] final    4.31 input   60.00 | X-H torsion
[ 3677 1070 1069 1066 ] final -128.81 input   60.00 | X-H torsion
[ 3525  925  924  922 ] final   -3.64 input   59.99 | X-H torsion
[ 4531 1957 1955 1953 ] final    5.65 input   60.00 | X-H torsion

> <Gold.Protein.ActiveResidues>
 PHE267  PRO268  MET310  ASP335  TRP336  MET339  TYR343  THR360  PRO361  ILE363 
 PRO371  SER374  ILE375  ASN378  PHE381  TYR383  GLN384  PHE387  LEU408  LEU417 
 MET419  LEU428  TYR466  MET469  ASN472  ASP496  VAL498  LEU499  MET503  HIS524 
 TRP525 

> <Gold.Protein.RotatedAtoms>
   -3.6288  -29.5366  -30.4262 H   0  0  0  0  0  0  0  0  0  0  0  0  # atno 3525 bound_to 925 
  -11.3600  -23.4788  -31.4444 H   0  0  0  0  0  0  0  0  0  0  0  0  # atno 3677 bound_to 1070
   -9.6849  -36.3790  -33.9746 H   0  0  0  0  0  0  0  0  0  0  0  0  # atno 3781 bound_to 1176
  -14.3177  -28.0759  -37.8469 H   0  0  0  0  0  0  0  0  0  0  0  0  # atno 3847 bound_to 1247
  -13.2111  -25.2857  -39.0408 H   0  0  0  0  0  0  0  0  0  0  0  0  # atno 4507 bound_to 1931
   -2.9149  -32.5719  -36.6793 H   0  0  0  0  0  0  0  0  0  0  0  0  # atno 4531 bound_to 1957
   -9.5931  -36.8921  -32.4331 LP  0  0  0  0  0  0  0  0  0  0  0  0  # atno 5205 bound_to 1176
  -10.8352  -37.3655  -33.3816 LP  0  0  0  0  0  0  0  0  0  0  0  0  # atno 5206 bound_to 1176
  -15.5232  -28.8498  -37.0750 LP  0  0  0  0  0  0  0  0  0  0  0  0  # atno 5215 bound_to 1247
  -15.7297  -27.3115  -37.5824 LP  0  0  0  0  0  0  0  0  0  0  0  0  # atno 5216 bound_to 1247
  -13.5277  -24.5494  -40.4570 LP  0  0  0  0  0  0  0  0  0  0  0  0  # atno 5217 bound_to 1931
  -12.4550  -23.8940  -39.4147 LP  0  0  0  0  0  0  0  0  0  0  0  0  # atno 5218 bound_to 1931
  -11.7029  -22.1734  -30.5354 LP  0  0  0  0  0  0  0  0  0  0  0  0  # atno 5224 bound_to 1070
  -12.7953  -23.3780  -30.6843 LP  0  0  0  0  0  0  0  0  0  0  0  0  # atno 5225 bound_to 1070

$$$$
IA_81.cdx|SeH_inactivess_minimized|sdf|159|dock4
  -GOLD-   4172122183D 1   1.00000     0.00000

 38 37  0  0  0  0  0  0  0  0  1 V2000
   -9.4427  -28.9623  -34.8848 C   0  0  0  0  0  0  0  0  0  0  0  0
  -11.2179  -26.3667  -34.3670 C   0  0  0  0  0  0  0  0  0  0  0  0
   -5.6976  -32.7481  -35.6989 C   0  0  0  0  0  0  0  0  0  0  0  0
   -4.3878  -31.7155  -33.8630 C   0  0  0  0  0  0  0  0  0  0  0  0
   -5.5068  -30.2505  -35.5372 C   0  0  0  0  0  0  0  0  0  0  0  0
   -8.7690  -31.7469  -35.5181 C   0  0  0  0  0  0  0  0  0  0  0  0
   -9.2956  -31.4233  -33.1100 C   0  0  0  0  0  0  0  0  0  0  0  0
   -6.8820  -31.5373  -33.7646 C   0  0  0  0  0  0  0  0  0  0  0  0
  -10.1989  -26.6450  -35.4190 C   0  0  0  0  0  0  0  0  0  0  0  0
   -5.6572  -31.5491  -34.7336 C   0  0  0  0  0  0  0  0  0  0  0  0
   -8.2932  -31.0724  -34.2288 C   0  0  0  0  0  0  0  0  0  0  0  0
   -9.2120  -27.5909  -34.9514 N   0  0  0  0  0  0  0  0  0  0  0  0
   -8.3267  -29.6298  -34.4004 N   0  0  0  0  0  0  0  0  0  0  0  0
  -10.4956  -29.5079  -35.2124 O   0  0  0  0  0  0  0  0  0  0  0  0
  -11.7694  -27.2767  -34.1066 H   0  0  0  0  0  0  0  0  0  0  0  0
  -10.7471  -25.9594  -33.4656 H   0  0  0  0  0  0  0  0  0  0  0  0
  -11.9396  -25.6279  -34.7354 H   0  0  0  0  0  0  0  0  0  0  0  0
   -4.7381  -32.9275  -36.1868 H   0  0  0  0  0  0  0  0  0  0  0  0
   -6.4527  -32.6039  -36.4797 H   0  0  0  0  0  0  0  0  0  0  0  0
   -5.9510  -33.6721  -35.1652 H   0  0  0  0  0  0  0  0  0  0  0  0
   -4.2719  -30.8754  -33.1687 H   0  0  0  0  0  0  0  0  0  0  0  0
   -3.4850  -31.7655  -34.4825 H   0  0  0  0  0  0  0  0  0  0  0  0
   -4.4288  -32.6353  -33.2681 H   0  0  0  0  0  0  0  0  0  0  0  0
   -6.4225  -30.0276  -36.0977 H   0  0  0  0  0  0  0  0  0  0  0  0
   -5.3149  -29.3891  -34.8906 H   0  0  0  0  0  0  0  0  0  0  0  0
   -4.6904  -30.3262  -36.2637 H   0  0  0  0  0  0  0  0  0  0  0  0
   -8.3173  -31.2737  -36.3987 H   0  0  0  0  0  0  0  0  0  0  0  0
   -9.8564  -31.6777  -35.6280 H   0  0  0  0  0  0  0  0  0  0  0  0
   -8.4735  -32.7991  -35.5602 H   0  0  0  0  0  0  0  0  0  0  0  0
   -9.3574  -32.5063  -32.9548 H   0  0  0  0  0  0  0  0  0  0  0  0
   -9.0054  -30.9614  -32.1587 H   0  0  0  0  0  0  0  0  0  0  0  0
  -10.3020  -31.0595  -33.3491 H   0  0  0  0  0  0  0  0  0  0  0  0
   -6.6116  -30.9050  -32.9050 H   0  0  0  0  0  0  0  0  0  0  0  0
   -6.9785  -32.5521  -33.3512 H   0  0  0  0  0  0  0  0  0  0  0  0
   -9.6746  -25.7260  -35.6977 H   0  0  0  0  0  0  0  0  0  0  0  0
  -10.6685  -27.0676  -36.3121 H   0  0  0  0  0  0  0  0  0  0  0  0
   -8.3064  -27.2385  -34.6572 H   0  0  0  0  0  0  0  0  0  0  0  0
   -7.4837  -29.1100  -34.1976 H   0  0  0  0  0  0  0  0  0  0  0  0
  1 12  1  0  0  0  0
  1 13  1  0  0  0  0
  1 14  2  0  0  0  0
  2  9  1  0  0  0  0
  3 10  1  0  0  0  0
  4 10  1  0  0  0  0
  5 10  1  0  0  0  0
  6 11  1  0  0  0  0
  7 11  1  0  0  0  0
  8 10  1  0  0  0  0
  8 11  1  0  0  0  0
  9 12  1  0  0  0  0
 11 13  1  0  0  0  0
  2 15  1  0  0  0  0
  2 16  1  0  0  0  0
  2 17  1  0  0  0  0
  3 18  1  0  0  0  0
  3 19  1  0  0  0  0
  3 20  1  0  0  0  0
  4 21  1  0  0  0  0
  4 22  1  0  0  0  0
  4 23  1  0  0  0  0
  5 24  1  0  0  0  0
  5 25  1  0  0  0  0
  5 26  1  0  0  0  0
  6 27  1  0  0  0  0
  6 28  1  0  0  0  0
  6 29  1  0  0  0  0
  7 30  1  0  0  0  0
  7 31  1  0  0  0  0
  7 32  1  0  0  0  0
  8 33  1  0  0  0  0
  8 34  1  0  0  0  0
  9 35  1  0  0  0  0
  9 36  1  0  0  0  0
 12 37  1  0  0  0  0
 13 38  1  0  0  0  0
M  END
> <Name>
IA_81.cdx

> <SourceTag>
IA_81

> <Gold.Version>
5.2

> <Gold.Id.Protein>
6HGV|6HGV_protein|mol2

> <Gold.Goldscore.Fitness>
35.8476

> <Gold.Goldscore.Internal.Vdw>
-6.5546

> <Gold.Goldscore.Internal.Torsion>
-2.9973

> <Gold.Goldscore.External.Vdw>
27.0832

> <Gold.Goldscore.Internal.HBond>
0.0000

> <Gold.Goldscore.External.HBond>
0.9591

> <Gold.Goldscore.Internal.Correction>
-7.2009

> <Gold.Goldscore.Hbonds>
donor molecule, donor type, donor heavy atom, donor atom, acceptor molecule, acceptor atom, score
      P1  H  1256  3854       L1    14  0.48

> <Gold.Goldscore.Internal.Vdw.Weighted>
-6.5546

> <Gold.Goldscore.Internal.Torsion.Weighted>
-2.9973

> <Gold.Goldscore.External.Vdw.Weighted>
37.2395

> <Gold.Goldscore.Internal.HBond.Weighted>
0.0000

> <Gold.Goldscore.External.HBond.Weighted>
0.9591

> <Gold.Goldscore.Internal.Correction.Weighted>
-7.2009

> <Gold.Protein.RotatedTorsions>
[ 3781 1176 1175 1172 ] final   33.21 input   60.00 | X-H torsion
[ 3847 1247 1246 1244 ] final   17.12 input   60.00 | X-H torsion
[ 4507 1931 1930 1928 ] final   61.87 input   60.00 | X-H torsion
[ 3677 1070 1069 1066 ] final -130.98 input   60.00 | X-H torsion
[ 3525  925  924  922 ] final  -26.77 input   59.99 | X-H torsion
[ 4531 1957 1955 1953 ] final  -59.60 input   60.00 | X-H torsion

> <Gold.Protein.ActiveResidues>
 PHE267  PRO268  MET310  ASP335  TRP336  MET339  TYR343  THR360  PRO361  ILE363 
 PRO371  SER374  ILE375  ASN378  PHE381  TYR383  GLN384  PHE387  LEU408  LEU417 
 MET419  LEU428  TYR466  MET469  ASN472  ASP496  VAL498  LEU499  MET503  HIS524 
 TRP525 

> <Gold.Protein.RotatedAtoms>
   -3.7581  -29.5124  -30.0745 H   0  0  0  0  0  0  0  0  0  0  0  0  # atno 3525 bound_to 925 
  -11.3368  -23.4524  -31.4408 H   0  0  0  0  0  0  0  0  0  0  0  0  # atno 3677 bound_to 1070
  -10.7933  -37.4207  -33.1676 H   0  0  0  0  0  0  0  0  0  0  0  0  # atno 3781 bound_to 1176
  -15.4767  -28.8680  -37.0890 H   0  0  0  0  0  0  0  0  0  0  0  0  # atno 3847 bound_to 1247
  -12.6238  -24.6409  -38.8127 H   0  0  0  0  0  0  0  0  0  0  0  0  # atno 4507 bound_to 1931
   -1.9858  -32.2154  -36.8497 H   0  0  0  0  0  0  0  0  0  0  0  0  # atno 4531 bound_to 1957
   -9.8642  -36.4529  -34.0886 LP  0  0  0  0  0  0  0  0  0  0  0  0  # atno 5205 bound_to 1176
   -9.4478  -36.7556  -32.5388 LP  0  0  0  0  0  0  0  0  0  0  0  0  # atno 5206 bound_to 1176
  -15.7671  -27.3370  -37.5580 LP  0  0  0  0  0  0  0  0  0  0  0  0  # atno 5215 bound_to 1247
  -14.3186  -28.0265  -37.8628 LP  0  0  0  0  0  0  0  0  0  0  0  0  # atno 5216 bound_to 1247
  -13.6832  -25.2424  -39.8916 LP  0  0  0  0  0  0  0  0  0  0  0  0  # atno 5217 bound_to 1931
  -12.8909  -23.8504  -40.2098 LP  0  0  0  0  0  0  0  0  0  0  0  0  # atno 5218 bound_to 1931
  -11.7344  -22.1717  -30.5189 LP  0  0  0  0  0  0  0  0  0  0  0  0  # atno 5224 bound_to 1070
  -12.7872  -23.4062  -30.7044 LP  0  0  0  0  0  0  0  0  0  0  0  0  # atno 5225 bound_to 1070

$$$$
IA_89.cdx|SeH_inactivess_minimized|sdf|167|dock7
  -GOLD-   4172122353D 1   1.00000     0.00000

 53 52  0  0  0  0  0  0  0  0  1 V2000
   -7.2363  -29.1675  -35.3402 C   0  0  0  0  0  0  0  0  0  0  0  0
  -21.0193  -23.9422  -39.4202 C   0  0  0  0  0  0  0  0  0  0  0  0
   -4.5507  -32.8235  -35.1832 C   0  0  0  0  0  0  0  0  0  0  0  0
  -20.2462  -24.6609  -38.3261 C   0  0  0  0  0  0  0  0  0  0  0  0
   -5.5062  -31.6903  -34.8371 C   0  0  0  0  0  0  0  0  0  0  0  0
  -18.7411  -24.4201  -38.4525 C   0  0  0  0  0  0  0  0  0  0  0  0
  -17.9752  -25.0946  -37.3124 C   0  0  0  0  0  0  0  0  0  0  0  0
  -16.4564  -25.0848  -37.5098 C   0  0  0  0  0  0  0  0  0  0  0  0
  -15.6842  -25.6600  -36.3193 C   0  0  0  0  0  0  0  0  0  0  0  0
  -14.1783  -25.6762  -36.5955 C   0  0  0  0  0  0  0  0  0  0  0  0
  -13.3420  -26.1087  -35.3877 C   0  0  0  0  0  0  0  0  0  0  0  0
  -11.8346  -26.0815  -35.6502 C   0  0  0  0  0  0  0  0  0  0  0  0
  -11.0443  -26.0482  -34.3393 C   0  0  0  0  0  0  0  0  0  0  0  0
   -9.5490  -26.2688  -34.5879 C   0  0  0  0  0  0  0  0  0  0  0  0
   -5.0338  -30.3402  -35.3631 C   0  0  0  0  0  0  0  0  0  0  0  0
   -9.2200  -27.6894  -35.0502 C   0  0  0  0  0  0  0  0  0  0  0  0
   -5.9006  -29.2579  -34.9577 N   0  0  0  0  0  0  0  0  0  0  0  0
   -7.8237  -28.0314  -34.8083 N   0  0  0  0  0  0  0  0  0  0  0  0
   -7.8133  -29.9875  -36.0533 O   0  0  0  0  0  0  0  0  0  0  0  0
  -20.9245  -22.8581  -39.3017 H   0  0  0  0  0  0  0  0  0  0  0  0
  -20.6384  -24.2102  -40.4109 H   0  0  0  0  0  0  0  0  0  0  0  0
  -22.0833  -24.1967  -39.3804 H   0  0  0  0  0  0  0  0  0  0  0  0
   -4.5174  -32.9920  -36.2643 H   0  0  0  0  0  0  0  0  0  0  0  0
   -3.5380  -32.5778  -34.8477 H   0  0  0  0  0  0  0  0  0  0  0  0
   -4.8476  -33.7581  -34.6974 H   0  0  0  0  0  0  0  0  0  0  0  0
  -20.4583  -25.7350  -38.3830 H   0  0  0  0  0  0  0  0  0  0  0  0
  -20.5978  -24.3120  -37.3482 H   0  0  0  0  0  0  0  0  0  0  0  0
   -5.6003  -31.6321  -33.7466 H   0  0  0  0  0  0  0  0  0  0  0  0
   -6.5005  -31.9229  -35.2366 H   0  0  0  0  0  0  0  0  0  0  0  0
  -18.5502  -23.3412  -38.4475 H   0  0  0  0  0  0  0  0  0  0  0  0
  -18.3868  -24.8091  -39.4145 H   0  0  0  0  0  0  0  0  0  0  0  0
  -18.2254  -24.6106  -36.3604 H   0  0  0  0  0  0  0  0  0  0  0  0
  -18.3016  -26.1389  -37.2306 H   0  0  0  0  0  0  0  0  0  0  0  0
  -16.1189  -24.0610  -37.7112 H   0  0  0  0  0  0  0  0  0  0  0  0
  -16.2250  -25.6754  -38.4050 H   0  0  0  0  0  0  0  0  0  0  0  0
  -15.8774  -25.0618  -35.4221 H   0  0  0  0  0  0  0  0  0  0  0  0
  -16.0401  -26.6766  -36.1195 H   0  0  0  0  0  0  0  0  0  0  0  0
  -13.9643  -26.3358  -37.4452 H   0  0  0  0  0  0  0  0  0  0  0  0
  -13.8578  -24.6688  -36.8893 H   0  0  0  0  0  0  0  0  0  0  0  0
  -13.6452  -27.1143  -35.0717 H   0  0  0  0  0  0  0  0  0  0  0  0
  -13.5724  -25.4336  -34.5541 H   0  0  0  0  0  0  0  0  0  0  0  0
  -11.5825  -25.2011  -36.2535 H   0  0  0  0  0  0  0  0  0  0  0  0
  -11.5370  -26.9662  -36.2241 H   0  0  0  0  0  0  0  0  0  0  0  0
  -11.1940  -25.0806  -33.8449 H   0  0  0  0  0  0  0  0  0  0  0  0
  -11.4317  -26.8206  -33.6645 H   0  0  0  0  0  0  0  0  0  0  0  0
   -9.1863  -25.5446  -35.3283 H   0  0  0  0  0  0  0  0  0  0  0  0
   -8.9972  -26.0720  -33.6602 H   0  0  0  0  0  0  0  0  0  0  0  0
   -4.0365  -30.1146  -34.9729 H   0  0  0  0  0  0  0  0  0  0  0  0
   -4.9810  -30.3360  -36.4563 H   0  0  0  0  0  0  0  0  0  0  0  0
   -9.8588  -28.3993  -34.5135 H   0  0  0  0  0  0  0  0  0  0  0  0
   -9.4377  -27.7954  -36.1184 H   0  0  0  0  0  0  0  0  0  0  0  0
   -5.5173  -28.5280  -34.3653 H   0  0  0  0  0  0  0  0  0  0  0  0
   -7.2947  -27.4315  -34.1936 H   0  0  0  0  0  0  0  0  0  0  0  0
  1 17  1  0  0  0  0
  1 18  1  0  0  0  0
  1 19  2  0  0  0  0
  2  4  1  0  0  0  0
  3  5  1  0  0  0  0
  4  6  1  0  0  0  0
  5 15  1  0  0  0  0
  6  7  1  0  0  0  0
  7  8  1  0  0  0  0
  8  9  1  0  0  0  0
  9 10  1  0  0  0  0
 10 11  1  0  0  0  0
 11 12  1  0  0  0  0
 12 13  1  0  0  0  0
 13 14  1  0  0  0  0
 14 16  1  0  0  0  0
 15 17  1  0  0  0  0
 16 18  1  0  0  0  0
  2 20  1  0  0  0  0
  2 21  1  0  0  0  0
  2 22  1  0  0  0  0
  3 23  1  0  0  0  0
  3 24  1  0  0  0  0
  3 25  1  0  0  0  0
  4 26  1  0  0  0  0
  4 27  1  0  0  0  0
  5 28  1  0  0  0  0
  5 29  1  0  0  0  0
  6 30  1  0  0  0  0
  6 31  1  0  0  0  0
  7 32  1  0  0  0  0
  7 33  1  0  0  0  0
  8 34  1  0  0  0  0
  8 35  1  0  0  0  0
  9 36  1  0  0  0  0
  9 37  1  0  0  0  0
 10 38  1  0  0  0  0
 10 39  1  0  0  0  0
 11 40  1  0  0  0  0
 11 41  1  0  0  0  0
 12 42  1  0  0  0  0
 12 43  1  0  0  0  0
 13 44  1  0  0  0  0
 13 45  1  0  0  0  0
 14 46  1  0  0  0  0
 14 47  1  0  0  0  0
 15 48  1  0  0  0  0
 15 49  1  0  0  0  0
 16 50  1  0  0  0  0
 16 51  1  0  0  0  0
 17 52  1  0  0  0  0
 18 53  1  0  0  0  0
M  END
> <Name>
IA_89.cdx

> <SourceTag>
IA_89

> <Gold.Version>
5.2

> <Gold.Id.Protein>
6HGV|6HGV_protein|mol2

> <Gold.Goldscore.Fitness>
65.8064

> <Gold.Goldscore.Internal.Vdw>
-6.9011

> <Gold.Goldscore.Internal.Torsion>
-3.4289

> <Gold.Goldscore.External.Vdw>
50.6831

> <Gold.Goldscore.Internal.HBond>
0.0000

> <Gold.Goldscore.External.HBond>
0.0000

> <Gold.Goldscore.Internal.Correction>
-6.4472

> <Gold.Goldscore.Internal.Vdw.Weighted>
-6.9011

> <Gold.Goldscore.Internal.Torsion.Weighted>
-3.4289

> <Gold.Goldscore.External.Vdw.Weighted>
69.6892

> <Gold.Goldscore.Internal.HBond.Weighted>
0.0000

> <Gold.Goldscore.External.HBond.Weighted>
0.0000

> <Gold.Goldscore.Internal.Correction.Weighted>
-6.4472

> <Gold.Protein.RotatedTorsions>
[ 3781 1176 1175 1172 ] final  101.67 input   60.00 | X-H torsion
[ 3847 1247 1246 1244 ] final   35.98 input   60.00 | X-H torsion
[ 4507 1931 1930 1928 ] final   85.74 input   60.00 | X-H torsion
[ 3677 1070 1069 1066 ] final -100.69 input   60.00 | X-H torsion
[ 3525  925  924  922 ] final   12.79 input   59.99 | X-H torsion
[ 4531 1957 1955 1953 ] final  -68.32 input   60.00 | X-H torsion

> <Gold.Protein.ActiveResidues>
 PHE267  PRO268  MET310  ASP335  TRP336  MET339  TYR343  THR360  PRO361  ILE363 
 PRO371  SER374  ILE375  ASN378  PHE381  TYR383  GLN384  PHE387  LEU408  LEU417 
 MET419  LEU428  TYR466  MET469  ASN472  ASP496  VAL498  LEU499  MET503  HIS524 
 TRP525 

> <Gold.Protein.RotatedAtoms>
   -3.4651  -29.5892  -30.6311 H   0  0  0  0  0  0  0  0  0  0  0  0  # atno 3525 bound_to 925 
  -11.7250  -23.7493  -31.4190 H   0  0  0  0  0  0  0  0  0  0  0  0  # atno 3677 bound_to 1070
  -10.0920  -37.2393  -32.4030 H   0  0  0  0  0  0  0  0  0  0  0  0  # atno 3781 bound_to 1176
  -15.1929  -28.9534  -37.1677 H   0  0  0  0  0  0  0  0  0  0  0  0  # atno 3847 bound_to 1247
  -12.4776  -24.3127  -38.9570 H   0  0  0  0  0  0  0  0  0  0  0  0  # atno 4507 bound_to 1931
   -1.8516  -32.2554  -36.8759 H   0  0  0  0  0  0  0  0  0  0  0  0  # atno 4531 bound_to 1957
  -10.6999  -37.0796  -33.9040 LP  0  0  0  0  0  0  0  0  0  0  0  0  # atno 5205 bound_to 1176
   -9.3184  -36.3117  -33.4935 LP  0  0  0  0  0  0  0  0  0  0  0  0  # atno 5206 bound_to 1176
  -15.9523  -27.5347  -37.4097 LP  0  0  0  0  0  0  0  0  0  0  0  0  # atno 5215 bound_to 1247
  -14.4191  -27.7428  -37.9318 LP  0  0  0  0  0  0  0  0  0  0  0  0  # atno 5216 bound_to 1247
  -13.5676  -25.3701  -39.5418 LP  0  0  0  0  0  0  0  0  0  0  0  0  # atno 5217 bound_to 1931
  -13.1537  -24.0533  -40.4143 LP  0  0  0  0  0  0  0  0  0  0  0  0  # atno 5218 bound_to 1931
  -11.3408  -22.3003  -30.7857 LP  0  0  0  0  0  0  0  0  0  0  0  0  # atno 5224 bound_to 1070
  -12.7899  -22.9787  -30.4596 LP  0  0  0  0  0  0  0  0  0  0  0  0  # atno 5225 bound_to 1070

$$$$
IA_94.cdx|SeH_inactivess_minimized|sdf|173|dock5
  -GOLD-   41821 8343D 1   1.00000     0.00000

 53 52  0  0  0  0  0  0  0  0  1 V2000
  -18.9127  -25.0662  -36.4022 C   0  0  0  0  0  0  0  0  0  0  0  0
   -4.5816  -32.4410  -35.4164 C   0  0  0  0  0  0  0  0  0  0  0  0
  -22.2655  -25.2627  -34.7734 C   0  0  0  0  0  0  0  0  0  0  0  0
   -5.8093  -32.8815  -34.6344 C   0  0  0  0  0  0  0  0  0  0  0  0
   -7.1141  -32.2743  -35.1544 C   0  0  0  0  0  0  0  0  0  0  0  0
   -7.2045  -30.7604  -34.9428 C   0  0  0  0  0  0  0  0  0  0  0  0
   -8.5842  -30.2298  -35.3416 C   0  0  0  0  0  0  0  0  0  0  0  0
   -8.7337  -28.7176  -35.1509 C   0  0  0  0  0  0  0  0  0  0  0  0
  -10.1135  -28.1874  -35.5499 C   0  0  0  0  0  0  0  0  0  0  0  0
  -10.2140  -26.6785  -35.3111 C   0  0  0  0  0  0  0  0  0  0  0  0
  -11.3659  -26.0174  -36.0741 C   0  0  0  0  0  0  0  0  0  0  0  0
  -12.7704  -26.2879  -35.5240 C   0  0  0  0  0  0  0  0  0  0  0  0
  -13.9267  -25.6895  -36.3313 C   0  0  0  0  0  0  0  0  0  0  0  0
  -15.2650  -25.7191  -35.5863 C   0  0  0  0  0  0  0  0  0  0  0  0
  -21.3377  -24.8378  -35.8602 C   0  0  0  0  0  0  0  0  0  0  0  0
  -16.4409  -25.3602  -36.4904 C   0  0  0  0  0  0  0  0  0  0  0  0
  -19.9600  -25.0577  -35.4850 N   0  0  0  0  0  0  0  0  0  0  0  0
  -17.6867  -25.3004  -35.7762 N   0  0  0  0  0  0  0  0  0  0  0  0
  -19.0457  -24.8894  -37.6124 O   0  0  0  0  0  0  0  0  0  0  0  0
   -4.4237  -31.3618  -35.3245 H   0  0  0  0  0  0  0  0  0  0  0  0
   -4.7089  -32.6752  -36.4783 H   0  0  0  0  0  0  0  0  0  0  0  0
   -3.6795  -32.9542  -35.0707 H   0  0  0  0  0  0  0  0  0  0  0  0
  -22.0142  -24.7674  -33.8292 H   0  0  0  0  0  0  0  0  0  0  0  0
  -23.3043  -25.0345  -35.0355 H   0  0  0  0  0  0  0  0  0  0  0  0
  -22.1853  -26.3454  -34.6187 H   0  0  0  0  0  0  0  0  0  0  0  0
   -5.8866  -33.9738  -34.6946 H   0  0  0  0  0  0  0  0  0  0  0  0
   -5.6764  -32.6313  -33.5754 H   0  0  0  0  0  0  0  0  0  0  0  0
   -7.9492  -32.7593  -34.6339 H   0  0  0  0  0  0  0  0  0  0  0  0
   -7.2282  -32.5071  -36.2201 H   0  0  0  0  0  0  0  0  0  0  0  0
   -6.4383  -30.2519  -35.5382 H   0  0  0  0  0  0  0  0  0  0  0  0
   -7.0058  -30.5342  -33.8894 H   0  0  0  0  0  0  0  0  0  0  0  0
   -9.3614  -30.7505  -34.7690 H   0  0  0  0  0  0  0  0  0  0  0  0
   -8.7640  -30.4599  -36.3992 H   0  0  0  0  0  0  0  0  0  0  0  0
   -7.9694  -28.2197  -35.7607 H   0  0  0  0  0  0  0  0  0  0  0  0
   -8.5237  -28.4564  -34.1065 H   0  0  0  0  0  0  0  0  0  0  0  0
  -10.2922  -28.4133  -36.6069 H   0  0  0  0  0  0  0  0  0  0  0  0
  -10.8927  -28.6937  -34.9696 H   0  0  0  0  0  0  0  0  0  0  0  0
  -10.3684  -26.4961  -34.2401 H   0  0  0  0  0  0  0  0  0  0  0  0
   -9.2649  -26.1959  -35.5704 H   0  0  0  0  0  0  0  0  0  0  0  0
  -11.3190  -26.3369  -37.1219 H   0  0  0  0  0  0  0  0  0  0  0  0
  -11.2053  -24.9318  -36.0856 H   0  0  0  0  0  0  0  0  0  0  0  0
  -12.8175  -25.9009  -34.4983 H   0  0  0  0  0  0  0  0  0  0  0  0
  -12.9255  -27.3702  -35.4422 H   0  0  0  0  0  0  0  0  0  0  0  0
  -13.6814  -24.6641  -36.6293 H   0  0  0  0  0  0  0  0  0  0  0  0
  -14.0234  -26.2645  -37.2608 H   0  0  0  0  0  0  0  0  0  0  0  0
  -15.2386  -25.0278  -34.7364 H   0  0  0  0  0  0  0  0  0  0  0  0
  -15.4293  -26.7251  -35.1821 H   0  0  0  0  0  0  0  0  0  0  0  0
  -21.4595  -23.7716  -36.0733 H   0  0  0  0  0  0  0  0  0  0  0  0
  -21.5280  -25.4043  -36.7765 H   0  0  0  0  0  0  0  0  0  0  0  0
  -16.5577  -26.1169  -37.2724 H   0  0  0  0  0  0  0  0  0  0  0  0
  -16.2851  -24.3905  -36.9737 H   0  0  0  0  0  0  0  0  0  0  0  0
  -19.7452  -25.2135  -34.5050 H   0  0  0  0  0  0  0  0  0  0  0  0
  -17.6730  -25.3886  -34.7618 H   0  0  0  0  0  0  0  0  0  0  0  0
  1 17  1  0  0  0  0
  1 18  1  0  0  0  0
  1 19  2  0  0  0  0
  2  4  1  0  0  0  0
  3 15  1  0  0  0  0
  4  5  1  0  0  0  0
  5  6  1  0  0  0  0
  6  7  1  0  0  0  0
  7  8  1  0  0  0  0
  8  9  1  0  0  0  0
  9 10  1  0  0  0  0
 10 11  1  0  0  0  0
 11 12  1  0  0  0  0
 12 13  1  0  0  0  0
 13 14  1  0  0  0  0
 14 16  1  0  0  0  0
 15 17  1  0  0  0  0
 16 18  1  0  0  0  0
  2 20  1  0  0  0  0
  2 21  1  0  0  0  0
  2 22  1  0  0  0  0
  3 23  1  0  0  0  0
  3 24  1  0  0  0  0
  3 25  1  0  0  0  0
  4 26  1  0  0  0  0
  4 27  1  0  0  0  0
  5 28  1  0  0  0  0
  5 29  1  0  0  0  0
  6 30  1  0  0  0  0
  6 31  1  0  0  0  0
  7 32  1  0  0  0  0
  7 33  1  0  0  0  0
  8 34  1  0  0  0  0
  8 35  1  0  0  0  0
  9 36  1  0  0  0  0
  9 37  1  0  0  0  0
 10 38  1  0  0  0  0
 10 39  1  0  0  0  0
 11 40  1  0  0  0  0
 11 41  1  0  0  0  0
 12 42  1  0  0  0  0
 12 43  1  0  0  0  0
 13 44  1  0  0  0  0
 13 45  1  0  0  0  0
 14 46  1  0  0  0  0
 14 47  1  0  0  0  0
 15 48  1  0  0  0  0
 15 49  1  0  0  0  0
 16 50  1  0  0  0  0
 16 51  1  0  0  0  0
 17 52  1  0  0  0  0
 18 53  1  0  0  0  0
M  END
> <Name>
IA_94.cdx

> <SourceTag>
IA_94

> <Gold.Version>
5.2

> <Gold.Id.Protein>
6HGV|6HGV_protein|mol2

> <Gold.Goldscore.Fitness>
65.7653

> <Gold.Goldscore.Internal.Vdw>
-5.5635

> <Gold.Goldscore.Internal.Torsion>
-3.2006

> <Gold.Goldscore.External.Vdw>
48.4013

> <Gold.Goldscore.Internal.HBond>
0.0000

> <Gold.Goldscore.External.HBond>
1.7706

> <Gold.Goldscore.Internal.Correction>
-6.2070

> <Gold.Goldscore.Hbonds>
donor molecule, donor type, donor heavy atom, donor atom, acceptor molecule, acceptor atom, score
      L1  H    17    52       P1  2185  0.30

> <Gold.Goldscore.Internal.Vdw.Weighted>
-5.5635

> <Gold.Goldscore.Internal.Torsion.Weighted>
-3.2006

> <Gold.Goldscore.External.Vdw.Weighted>
66.5517

> <Gold.Goldscore.Internal.HBond.Weighted>
0.0000

> <Gold.Goldscore.External.HBond.Weighted>
1.7706

> <Gold.Goldscore.Internal.Correction.Weighted>
-6.2070

> <Gold.Protein.RotatedTorsions>
[ 3781 1176 1175 1172 ] final  -73.51 input   60.00 | X-H torsion
[ 3847 1247 1246 1244 ] final   -1.89 input   60.00 | X-H torsion
[ 4507 1931 1930 1928 ] final   66.60 input   60.00 | X-H torsion
[ 3677 1070 1069 1066 ] final  -85.32 input   60.00 | X-H torsion
[ 3525  925  924  922 ] final   30.73 input   59.99 | X-H torsion
[ 4531 1957 1955 1953 ] final  144.67 input   60.00 | X-H torsion

> <Gold.Protein.ActiveResidues>
 PHE267  PRO268  MET310  ASP335  TRP336  MET339  TYR343  THR360  PRO361  ILE363 
 PRO371  SER374  ILE375  ASN378  PHE381  TYR383  GLN384  PHE387  LEU408  LEU417 
 MET419  LEU428  TYR466  MET469  ASN472  ASP496  VAL498  LEU499  MET503  HIS524 
 TRP525 

> <Gold.Protein.RotatedAtoms>
   -3.2355  -29.6748  -30.7898 H   0  0  0  0  0  0  0  0  0  0  0  0  # atno 3525 bound_to 925 
  -11.9533  -23.8260  -31.3505 H   0  0  0  0  0  0  0  0  0  0  0  0  # atno 3677 bound_to 1070
  -10.0468  -36.5569  -34.1443 H   0  0  0  0  0  0  0  0  0  0  0  0  # atno 3781 bound_to 1176
  -15.7315  -28.6962  -37.0547 H   0  0  0  0  0  0  0  0  0  0  0  0  # atno 3847 bound_to 1247
  -12.5879  -24.5750  -38.8305 H   0  0  0  0  0  0  0  0  0  0  0  0  # atno 4507 bound_to 1931
   -1.9857  -34.0459  -36.8814 H   0  0  0  0  0  0  0  0  0  0  0  0  # atno 4531 bound_to 1957
   -9.3395  -36.6302  -32.6806 LP  0  0  0  0  0  0  0  0  0  0  0  0  # atno 5205 bound_to 1176
  -10.7243  -37.4482  -32.9633 LP  0  0  0  0  0  0  0  0  0  0  0  0  # atno 5206 bound_to 1176
  -15.5175  -27.2183  -37.7014 LP  0  0  0  0  0  0  0  0  0  0  0  0  # atno 5215 bound_to 1247
  -14.3116  -28.3182  -37.7539 LP  0  0  0  0  0  0  0  0  0  0  0  0  # atno 5216 bound_to 1247
  -13.6683  -25.2777  -39.8240 LP  0  0  0  0  0  0  0  0  0  0  0  0  # atno 5217 bound_to 1931
  -12.9420  -23.8815  -40.2594 LP  0  0  0  0  0  0  0  0  0  0  0  0  # atno 5218 bound_to 1931
  -11.1995  -22.4443  -30.9371 LP  0  0  0  0  0  0  0  0  0  0  0  0  # atno 5224 bound_to 1070
  -12.7012  -22.7575  -30.3772 LP  0  0  0  0  0  0  0  0  0  0  0  0  # atno 5225 bound_to 1070

$$$$
IA_55.cdx|SeH_inactivess_minimized|sdf|140|dock7
  -GOLD-   4172121533D 1   1.00000     0.00000

 34 35  0  0  0  0  0  0  0  0  1 V2000
   -3.3338  -30.5424  -32.4947 C   0  0  0  0  0  0  0  0  0  0  0  0
   -4.8995  -31.8162  -35.1844 C   0  0  0  0  0  0  0  0  0  0  0  0
   -4.6891  -30.2198  -32.5619 C   0  0  0  0  0  0  0  0  0  0  0  0
   -2.9249  -31.7030  -31.8378 C   0  0  0  0  0  0  0  0  0  0  0  0
   -3.8455  -32.5995  -34.7143 C   0  0  0  0  0  0  0  0  0  0  0  0
   -6.1899  -32.0165  -34.6941 C   0  0  0  0  0  0  0  0  0  0  0  0
   -5.6356  -31.0577  -31.9721 C   0  0  0  0  0  0  0  0  0  0  0  0
   -3.8713  -32.5409  -31.2480 C   0  0  0  0  0  0  0  0  0  0  0  0
   -4.0819  -33.5833  -33.7541 C   0  0  0  0  0  0  0  0  0  0  0  0
   -6.4263  -33.0002  -33.7339 C   0  0  0  0  0  0  0  0  0  0  0  0
   -5.2267  -32.2182  -31.3151 C   0  0  0  0  0  0  0  0  0  0  0  0
   -5.3723  -33.7837  -33.2638 C   0  0  0  0  0  0  0  0  0  0  0  0
   -6.2486  -34.4652  -31.0424 C   0  0  0  0  0  0  0  0  0  0  0  0
   -7.1663  -32.5465  -29.7311 C   0  0  0  0  0  0  0  0  0  0  0  0
   -5.2133  -36.1926  -32.5220 C   0  0  0  0  0  0  0  0  0  0  0  0
   -6.2080  -33.0869  -30.7039 N   0  0  0  0  0  0  0  0  0  0  0  0
   -5.6171  -34.8036  -32.2683 N   0  0  0  0  0  0  0  0  0  0  0  0
   -6.7944  -35.3087  -30.3225 O   0  0  0  0  0  0  0  0  0  0  0  0
   -2.5966  -29.8907  -32.9544 H   0  0  0  0  0  0  0  0  0  0  0  0
   -4.7157  -31.0496  -35.9315 H   0  0  0  0  0  0  0  0  0  0  0  0
   -5.0080  -29.3168  -33.0740 H   0  0  0  0  0  0  0  0  0  0  0  0
   -1.8694  -31.9545  -31.7865 H   0  0  0  0  0  0  0  0  0  0  0  0
   -2.8405  -32.4434  -35.0952 H   0  0  0  0  0  0  0  0  0  0  0  0
   -7.0103  -31.4056  -35.0595 H   0  0  0  0  0  0  0  0  0  0  0  0
   -6.6892  -30.7961  -32.0309 H   0  0  0  0  0  0  0  0  0  0  0  0
   -3.5409  -33.4429  -30.7387 H   0  0  0  0  0  0  0  0  0  0  0  0
   -3.2526  -34.1877  -33.3952 H   0  0  0  0  0  0  0  0  0  0  0  0
   -7.4362  -33.1474  -33.3590 H   0  0  0  0  0  0  0  0  0  0  0  0
   -7.1179  -33.1166  -28.7996 H   0  0  0  0  0  0  0  0  0  0  0  0
   -8.1831  -32.6070  -30.1284 H   0  0  0  0  0  0  0  0  0  0  0  0
   -6.9361  -31.4997  -29.5153 H   0  0  0  0  0  0  0  0  0  0  0  0
   -4.2853  -36.4173  -31.9898 H   0  0  0  0  0  0  0  0  0  0  0  0
   -5.0523  -36.3501  -33.5920 H   0  0  0  0  0  0  0  0  0  0  0  0
   -5.9908  -36.8808  -32.1796 H   0  0  0  0  0  0  0  0  0  0  0  0
  1  3  2  0  0  0  0
  1  4  1  0  0  0  0
  2  5  2  0  0  0  0
  2  6  1  0  0  0  0
  3  7  1  0  0  0  0
  4  8  2  0  0  0  0
  5  9  1  0  0  0  0
  6 10  2  0  0  0  0
  7 11  2  0  0  0  0
  8 11  1  0  0  0  0
  9 12  2  0  0  0  0
 10 12  1  0  0  0  0
 11 16  1  0  0  0  0
 12 17  1  0  0  0  0
 13 16  1  0  0  0  0
 13 17  1  0  0  0  0
 13 18  2  0  0  0  0
 14 16  1  0  0  0  0
 15 17  1  0  0  0  0
  1 19  1  0  0  0  0
  2 20  1  0  0  0  0
  3 21  1  0  0  0  0
  4 22  1  0  0  0  0
  5 23  1  0  0  0  0
  6 24  1  0  0  0  0
  7 25  1  0  0  0  0
  8 26  1  0  0  0  0
  9 27  1  0  0  0  0
 10 28  1  0  0  0  0
 14 29  1  0  0  0  0
 14 30  1  0  0  0  0
 14 31  1  0  0  0  0
 15 32  1  0  0  0  0
 15 33  1  0  0  0  0
 15 34  1  0  0  0  0
M  END
> <Name>
IA_55.cdx

> <SourceTag>
IA_55

> <Gold.Version>
5.2

> <Gold.Id.Protein>
6HGV|6HGV_protein|mol2

> <Gold.Goldscore.Fitness>
38.2131

> <Gold.Goldscore.Internal.Vdw>
1.7380

> <Gold.Goldscore.Internal.Torsion>
-15.5977

> <Gold.Goldscore.External.Vdw>
27.9181

> <Gold.Goldscore.Internal.HBond>
0.0000

> <Gold.Goldscore.External.HBond>
0.0000

> <Gold.Goldscore.Internal.Correction>
-13.6855

> <Gold.Goldscore.Internal.Vdw.Weighted>
1.7380

> <Gold.Goldscore.Internal.Torsion.Weighted>
-15.5977

> <Gold.Goldscore.External.Vdw.Weighted>
38.3874

> <Gold.Goldscore.Internal.HBond.Weighted>
0.0000

> <Gold.Goldscore.External.HBond.Weighted>
0.0000

> <Gold.Goldscore.Internal.Correction.Weighted>
-13.6855

> <Gold.Protein.RotatedTorsions>
[ 3781 1176 1175 1172 ] final -149.77 input   60.00 | X-H torsion
[ 3847 1247 1246 1244 ] final -156.97 input   60.00 | X-H torsion
[ 4507 1931 1930 1928 ] final    9.36 input   60.00 | X-H torsion
[ 3677 1070 1069 1066 ] final   21.75 input   60.00 | X-H torsion
[ 3525  925  924  922 ] final  -97.98 input   59.99 | X-H torsion
[ 4531 1957 1955 1953 ] final  131.44 input   60.00 | X-H torsion

> <Gold.Protein.ActiveResidues>
 PHE267  PRO268  MET310  ASP335  TRP336  MET339  TYR343  THR360  PRO361  ILE363 
 PRO371  SER374  ILE375  ASN378  PHE381  TYR383  GLN384  PHE387  LEU408  LEU417 
 MET419  LEU428  TYR466  MET469  ASN472  ASP496  VAL498  LEU499  MET503  HIS524 
 TRP525 

> <Gold.Protein.RotatedAtoms>
   -3.3338  -29.7858  -29.1084 H   0  0  0  0  0  0  0  0  0  0  0  0  # atno 3525 bound_to 925 
  -12.7730  -22.9446  -30.4455 H   0  0  0  0  0  0  0  0  0  0  0  0  # atno 3677 bound_to 1070
   -9.2674  -36.3469  -33.3166 H   0  0  0  0  0  0  0  0  0  0  0  0  # atno 3781 bound_to 1176
  -14.9877  -27.2547  -37.8981 H   0  0  0  0  0  0  0  0  0  0  0  0  # atno 3847 bound_to 1247
  -13.1564  -25.2498  -38.9905 H   0  0  0  0  0  0  0  0  0  0  0  0  # atno 4507 bound_to 1931
   -2.1966  -34.0674  -36.8416 H   0  0  0  0  0  0  0  0  0  0  0  0  # atno 4531 bound_to 1957
  -10.2508  -37.3206  -32.4604 LP  0  0  0  0  0  0  0  0  0  0  0  0  # atno 5205 bound_to 1176
  -10.5979  -36.9693  -34.0169 LP  0  0  0  0  0  0  0  0  0  0  0  0  # atno 5206 bound_to 1176
  -14.5428  -28.7663  -37.4918 LP  0  0  0  0  0  0  0  0  0  0  0  0  # atno 5215 bound_to 1247
  -16.0354  -28.2220  -37.1141 LP  0  0  0  0  0  0  0  0  0  0  0  0  # atno 5216 bound_to 1247
  -13.5644  -24.6205  -40.4346 LP  0  0  0  0  0  0  0  0  0  0  0  0  # atno 5217 bound_to 1931
  -12.4733  -23.8591  -39.4878 LP  0  0  0  0  0  0  0  0  0  0  0  0  # atno 5218 bound_to 1931
  -11.7602  -23.7693  -31.4161 LP  0  0  0  0  0  0  0  0  0  0  0  0  # atno 5224 bound_to 1070
  -11.3151  -22.3200  -30.8095 LP  0  0  0  0  0  0  0  0  0  0  0  0  # atno 5225 bound_to 1070

$$$$
IA_19|SeH_inactivess_minimized|sdf|90|dock10
  -GOLD-   4172120293D 1   1.00000     0.00000

 63 65  0  0  0  0  0  0  0  0  1 V2000
   -8.1978  -30.0602  -35.3805 C   0  0  0  0  0  0  0  0  0  0  0  0
   -4.1007  -31.5859  -34.3967 C   0  0  0  0  0  0  0  0  0  0  0  0
   -6.6726  -32.8853  -34.1783 C   0  0  0  0  0  0  0  0  0  0  0  0
  -14.1577  -25.4015  -36.9051 C   0  0  0  0  0  0  0  0  0  0  0  0
  -17.0557  -22.8537  -40.5232 C   0  0  0  0  0  0  0  0  0  0  0  0
  -18.7713  -24.0523  -39.1414 C   0  0  0  0  0  0  0  0  0  0  0  0
  -17.2052  -25.3559  -40.6032 C   0  0  0  0  0  0  0  0  0  0  0  0
  -16.8149  -22.9467  -38.0290 C   0  0  0  0  0  0  0  0  0  0  0  0
  -15.2472  -24.2515  -39.4924 C   0  0  0  0  0  0  0  0  0  0  0  0
  -16.9652  -25.4527  -38.1088 C   0  0  0  0  0  0  0  0  0  0  0  0
  -17.8204  -22.8442  -39.1888 C   0  0  0  0  0  0  0  0  0  0  0  0
  -16.2463  -24.1544  -40.6582 C   0  0  0  0  0  0  0  0  0  0  0  0
  -17.9710  -25.3597  -39.2692 C   0  0  0  0  0  0  0  0  0  0  0  0
  -15.9955  -24.2515  -38.1409 C   0  0  0  0  0  0  0  0  0  0  0  0
   -8.5501  -28.7153  -34.7674 C   0  0  0  0  0  0  0  0  0  0  0  0
   -4.9850  -31.7290  -35.6177 C   0  0  0  0  0  0  0  0  0  0  0  0
   -9.6312  -27.9531  -35.5329 C   0  0  0  0  0  0  0  0  0  0  0  0
   -9.8481  -26.5053  -35.0745 C   0  0  0  0  0  0  0  0  0  0  0  0
  -10.9571  -25.7811  -35.8449 C   0  0  0  0  0  0  0  0  0  0  0  0
  -12.3522  -26.1920  -35.3824 C   0  0  0  0  0  0  0  0  0  0  0  0
   -6.4708  -31.8424  -35.2652 C   0  0  2  0  0  0  0  0  0  0  0  0
   -7.0101  -30.5626  -34.8691 N   0  0  0  0  0  0  0  0  0  0  0  0
  -15.0495  -24.3436  -37.0505 N   0  0  0  0  0  0  0  0  0  0  0  0
  -13.3642  -25.2388  -35.7723 N   0  0  0  0  0  0  0  0  0  0  0  0
   -8.9072  -30.6299  -36.2054 O   0  0  0  0  0  0  0  0  0  0  0  0
   -3.7103  -30.5295  -33.9201 O   0  0  0  0  0  0  0  0  0  0  0  0
   -6.9174  -32.6118  -33.0094 O   0  0  0  0  0  0  0  0  0  0  0  0
  -14.0782  -26.3573  -37.6757 O   0  0  0  0  0  0  0  0  0  0  0  0
   -3.7775  -32.7985  -33.8746 O   0  0  0  0  0  0  0  0  0  0  0  0
   -6.5521  -34.1585  -34.6247 O   0  0  0  0  0  0  0  0  0  0  0  0
  -17.7605  -22.7624  -41.3587 H   0  0  0  0  0  0  0  0  0  0  0  0
  -16.3847  -21.9876  -40.5766 H   0  0  0  0  0  0  0  0  0  0  0  0
  -19.3350  -24.0489  -38.2003 H   0  0  0  0  0  0  0  0  0  0  0  0
  -19.5060  -23.9822  -39.9531 H   0  0  0  0  0  0  0  0  0  0  0  0
  -17.9125  -25.3094  -41.4403 H   0  0  0  0  0  0  0  0  0  0  0  0
  -16.6414  -26.2902  -40.7142 H   0  0  0  0  0  0  0  0  0  0  0  0
  -16.1467  -22.0755  -38.0385 H   0  0  0  0  0  0  0  0  0  0  0  0
  -17.3481  -22.9145  -37.0696 H   0  0  0  0  0  0  0  0  0  0  0  0
  -14.6452  -25.1643  -39.5929 H   0  0  0  0  0  0  0  0  0  0  0  0
  -14.5411  -23.4117  -39.5356 H   0  0  0  0  0  0  0  0  0  0  0  0
  -17.5022  -25.4818  -37.1517 H   0  0  0  0  0  0  0  0  0  0  0  0
  -16.4064  -26.3954  -38.1765 H   0  0  0  0  0  0  0  0  0  0  0  0
  -18.3961  -21.9163  -39.0984 H   0  0  0  0  0  0  0  0  0  0  0  0
  -15.7050  -24.1563  -41.6108 H   0  0  0  0  0  0  0  0  0  0  0  0
  -18.6536  -26.2161  -39.2368 H   0  0  0  0  0  0  0  0  0  0  0  0
   -8.9160  -28.9179  -33.7529 H   0  0  0  0  0  0  0  0  0  0  0  0
   -7.6449  -28.1083  -34.6634 H   0  0  0  0  0  0  0  0  0  0  0  0
   -4.8122  -30.8426  -36.2399 H   0  0  0  0  0  0  0  0  0  0  0  0
   -4.6619  -32.6143  -36.1787 H   0  0  0  0  0  0  0  0  0  0  0  0
   -9.3847  -27.9451  -36.6019 H   0  0  0  0  0  0  0  0  0  0  0  0
  -10.5779  -28.4992  -35.4375 H   0  0  0  0  0  0  0  0  0  0  0  0
   -8.9046  -25.9630  -35.2151 H   0  0  0  0  0  0  0  0  0  0  0  0
  -10.0625  -26.4816  -34.0005 H   0  0  0  0  0  0  0  0  0  0  0  0
  -10.8475  -24.6993  -35.7031 H   0  0  0  0  0  0  0  0  0  0  0  0
  -10.8613  -25.9812  -36.9181 H   0  0  0  0  0  0  0  0  0  0  0  0
  -12.6352  -27.1678  -35.7896 H   0  0  0  0  0  0  0  0  0  0  0  0
  -12.3794  -26.2586  -34.2901 H   0  0  0  0  0  0  0  0  0  0  0  0
   -7.0651  -32.1649  -36.1276 H   0  0  0  0  0  0  0  0  0  0  0  0
   -6.4705  -30.0023  -34.2158 H   0  0  0  0  0  0  0  0  0  0  0  0
  -15.0356  -23.6017  -36.3590 H   0  0  0  0  0  0  0  0  0  0  0  0
  -13.4688  -24.3938  -35.2195 H   0  0  0  0  0  0  0  0  0  0  0  0
   -3.1950  -32.7673  -33.0857 H   0  0  0  0  0  0  0  0  0  0  0  0
   -6.7037  -34.8135  -33.9105 H   0  0  0  0  0  0  0  0  0  0  0  0
  1 15  1  0  0  0  0
  1 22  1  0  0  0  0
  1 25  2  0  0  0  0
  2 16  1  0  0  0  0
  2 26  2  0  0  0  0
  2 29  1  0  0  0  0
  3 21  1  0  0  0  0
  3 27  2  0  0  0  0
  3 30  1  0  0  0  0
  4 23  1  0  0  0  0
  4 24  1  0  0  0  0
  4 28  2  0  0  0  0
  5 11  1  0  0  0  0
  5 12  1  0  0  0  0
  6 11  1  0  0  0  0
  6 13  1  0  0  0  0
  7 12  1  0  0  0  0
  7 13  1  0  0  0  0
  8 11  1  0  0  0  0
  8 14  1  0  0  0  0
  9 12  1  0  0  0  0
  9 14  1  0  0  0  0
 10 13  1  0  0  0  0
 10 14  1  0  0  0  0
 14 23  1  0  0  0  0
 15 17  1  0  0  0  0
 16 21  1  0  0  0  0
 17 18  1  0  0  0  0
 18 19  1  0  0  0  0
 19 20  1  0  0  0  0
 20 24  1  0  0  0  0
 21 22  1  0  0  0  0
  5 31  1  0  0  0  0
  5 32  1  0  0  0  0
  6 33  1  0  0  0  0
  6 34  1  0  0  0  0
  7 35  1  0  0  0  0
  7 36  1  0  0  0  0
  8 37  1  0  0  0  0
  8 38  1  0  0  0  0
  9 39  1  0  0  0  0
  9 40  1  0  0  0  0
 10 41  1  0  0  0  0
 10 42  1  0  0  0  0
 11 43  1  0  0  0  0
 12 44  1  0  0  0  0
 13 45  1  0  0  0  0
 15 46  1  0  0  0  0
 15 47  1  0  0  0  0
 16 48  1  0  0  0  0
 16 49  1  0  0  0  0
 17 50  1  0  0  0  0
 17 51  1  0  0  0  0
 18 52  1  0  0  0  0
 18 53  1  0  0  0  0
 19 54  1  0  0  0  0
 19 55  1  0  0  0  0
 20 56  1  0  0  0  0
 20 57  1  0  0  0  0
 21 58  1  0  0  0  0
 22 59  1  0  0  0  0
 23 60  1  0  0  0  0
 24 61  1  0  0  0  0
 29 62  1  0  0  0  0
 30 63  1  0  0  0  0
M  END
> <Name>
IA_19

> <SourceTag>
IA_19

> <Gold.Version>
5.2

> <Gold.Id.Protein>
6HGV|6HGV_protein|mol2

> <Gold.Goldscore.Fitness>
65.7203

> <Gold.Goldscore.Internal.Vdw>
-3.3249

> <Gold.Goldscore.Internal.Torsion>
-5.4483

> <Gold.Goldscore.External.Vdw>
46.6990

> <Gold.Goldscore.Internal.HBond>
0.0000

> <Gold.Goldscore.External.HBond>
3.5084

> <Gold.Goldscore.Internal.Correction>
-6.7741

> <Gold.Goldscore.Hbonds>
donor molecule, donor type, donor heavy atom, donor atom, acceptor molecule, acceptor atom, score
      P1  H   925  3525       L1    26  0.19
      L1  H    23    60       P1   853  0.21
      L1  H    24    61       P1   853  0.31

> <Gold.Goldscore.Internal.Vdw.Weighted>
-3.3249

> <Gold.Goldscore.Internal.Torsion.Weighted>
-5.4483

> <Gold.Goldscore.External.Vdw.Weighted>
64.2111

> <Gold.Goldscore.Internal.HBond.Weighted>
0.0000

> <Gold.Goldscore.External.HBond.Weighted>
3.5084

> <Gold.Goldscore.Internal.Correction.Weighted>
-6.7741

> <Gold.Protein.RotatedTorsions>
[ 3781 1176 1175 1172 ] final -166.71 input   60.00 | X-H torsion
[ 3847 1247 1246 1244 ] final  -11.13 input   60.00 | X-H torsion
[ 4507 1931 1930 1928 ] final   83.59 input   60.00 | X-H torsion
[ 3677 1070 1069 1066 ] final -108.77 input   60.00 | X-H torsion
[ 3525  925  924  922 ] final   43.78 input   59.99 | X-H torsion
[ 4531 1957 1955 1953 ] final  -45.71 input   60.00 | X-H torsion

> <Gold.Protein.ActiveResidues>
 PHE267  PRO268  MET310  ASP335  TRP336  MET339  TYR343  THR360  PRO361  ILE363 
 PRO371  SER374  ILE375  ASN378  PHE381  TYR383  GLN384  PHE387  LEU408  LEU417 
 MET419  LEU428  TYR466  MET469  ASN472  ASP496  VAL498  LEU499  MET503  HIS524 
 TRP525 

> <Gold.Protein.RotatedAtoms>
   -3.0473  -29.7510  -30.8538 H   0  0  0  0  0  0  0  0  0  0  0  0  # atno 3525 bound_to 925 
  -11.6105  -23.6873  -31.4400 H   0  0  0  0  0  0  0  0  0  0  0  0  # atno 3677 bound_to 1070
   -9.2428  -36.4287  -33.0544 H   0  0  0  0  0  0  0  0  0  0  0  0  # atno 3781 bound_to 1176
  -15.8356  -28.5868  -37.0557 H   0  0  0  0  0  0  0  0  0  0  0  0  # atno 3847 bound_to 1247
  -12.4870  -24.3412  -38.9387 H   0  0  0  0  0  0  0  0  0  0  0  0  # atno 4507 bound_to 1931
   -2.2074  -32.1957  -36.8073 H   0  0  0  0  0  0  0  0  0  0  0  0  # atno 4531 bound_to 1957
  -10.4660  -37.4070  -32.6131 LP  0  0  0  0  0  0  0  0  0  0  0  0  # atno 5205 bound_to 1176
  -10.4076  -36.8006  -34.1282 LP  0  0  0  0  0  0  0  0  0  0  0  0  # atno 5206 bound_to 1176
  -15.3812  -27.1941  -37.7641 LP  0  0  0  0  0  0  0  0  0  0  0  0  # atno 5215 bound_to 1247
  -14.3431  -28.4526  -37.6902 LP  0  0  0  0  0  0  0  0  0  0  0  0  # atno 5216 bound_to 1247
  -13.5820  -25.3639  -39.5735 LP  0  0  0  0  0  0  0  0  0  0  0  0  # atno 5217 bound_to 1931
  -13.1299  -24.0307  -40.4010 LP  0  0  0  0  0  0  0  0  0  0  0  0  # atno 5218 bound_to 1931
  -11.4333  -22.2445  -30.7084 LP  0  0  0  0  0  0  0  0  0  0  0  0  # atno 5224 bound_to 1070
  -12.8127  -23.0969  -30.5157 LP  0  0  0  0  0  0  0  0  0  0  0  0  # atno 5225 bound_to 1070

$$$$
IA_120.cdx|SeH_inactivess_minimized|sdf|23|dock10
  -GOLD-   4172119 33D 1   1.00000     0.00000

 38 38  0  0  0  0  0  0  0  0  1 V2000
   -9.5976  -27.0894  -34.8387 C   0  0  0  0  0  0  0  0  0  0  0  0
  -10.3169  -27.5881  -35.9247 C   0  0  0  0  0  0  0  0  0  0  0  0
   -9.8359  -25.7939  -34.3797 C   0  0  0  0  0  0  0  0  0  0  0  0
  -11.2747  -26.7912  -36.5519 C   0  0  0  0  0  0  0  0  0  0  0  0
  -10.7937  -24.9970  -35.0069 C   0  0  0  0  0  0  0  0  0  0  0  0
  -11.5130  -25.4957  -36.0929 C   0  0  0  0  0  0  0  0  0  0  0  0
  -13.5649  -25.1024  -37.5128 C   0  0  0  0  0  0  0  0  0  0  0  0
  -17.3148  -25.4510  -34.6311 C   0  0  0  0  0  0  0  0  0  0  0  0
  -19.7186  -23.8696  -40.1804 C   0  0  0  0  0  0  0  0  0  0  0  0
  -15.4676  -24.1073  -38.7929 C   0  0  0  0  0  0  0  0  0  0  0  0
  -17.7288  -24.9728  -36.0065 C   0  0  0  0  0  0  0  0  0  0  0  0
  -18.5256  -23.3595  -39.4007 C   0  0  0  0  0  0  0  0  0  0  0  0
  -16.7585  -24.0688  -37.9735 C   0  0  0  0  0  0  0  0  0  0  0  0
  -12.4844  -24.6878  -36.7290 N   0  0  0  0  0  0  0  0  0  0  0  0
  -14.2963  -23.9951  -37.9628 N   0  0  0  0  0  0  0  0  0  0  0  0
  -13.8660  -26.2606  -37.7914 O   0  0  0  0  0  0  0  0  0  0  0  0
  -16.5854  -24.9446  -36.8505 O   0  0  0  0  0  0  0  0  0  0  0  0
  -17.8726  -24.4593  -38.7816 O   0  0  0  0  0  0  0  0  0  0  0  0
   -8.8522  -27.7099  -34.3496 H   0  0  0  0  0  0  0  0  0  0  0  0
  -10.1322  -28.5969  -36.2818 H   0  0  0  0  0  0  0  0  0  0  0  0
   -9.2763  -25.4063  -33.5334 H   0  0  0  0  0  0  0  0  0  0  0  0
  -11.8293  -27.1905  -37.3973 H   0  0  0  0  0  0  0  0  0  0  0  0
  -10.9710  -23.9890  -34.6405 H   0  0  0  0  0  0  0  0  0  0  0  0
  -16.5395  -24.8047  -34.2103 H   0  0  0  0  0  0  0  0  0  0  0  0
  -18.1733  -25.4617  -33.9515 H   0  0  0  0  0  0  0  0  0  0  0  0
  -16.9330  -26.4763  -34.6778 H   0  0  0  0  0  0  0  0  0  0  0  0
  -20.3548  -23.0420  -40.5060 H   0  0  0  0  0  0  0  0  0  0  0  0
  -19.3922  -24.4324  -41.0612 H   0  0  0  0  0  0  0  0  0  0  0  0
  -20.3153  -24.5542  -39.5685 H   0  0  0  0  0  0  0  0  0  0  0  0
  -15.3717  -25.0449  -39.3473 H   0  0  0  0  0  0  0  0  0  0  0  0
  -15.4340  -23.2724  -39.5000 H   0  0  0  0  0  0  0  0  0  0  0  0
  -18.1511  -23.9649  -35.9513 H   0  0  0  0  0  0  0  0  0  0  0  0
  -18.4710  -25.6491  -36.4408 H   0  0  0  0  0  0  0  0  0  0  0  0
  -18.8457  -22.6576  -38.6249 H   0  0  0  0  0  0  0  0  0  0  0  0
  -17.8170  -22.8585  -40.0670 H   0  0  0  0  0  0  0  0  0  0  0  0
  -16.9024  -23.0498  -37.5903 H   0  0  0  0  0  0  0  0  0  0  0  0
  -12.3801  -23.6851  -36.5966 H   0  0  0  0  0  0  0  0  0  0  0  0
  -13.9844  -23.0661  -37.6895 H   0  0  0  0  0  0  0  0  0  0  0  0
  1  2  2  0  0  0  0
  1  3  1  0  0  0  0
  2  4  1  0  0  0  0
  3  5  2  0  0  0  0
  4  6  2  0  0  0  0
  5  6  1  0  0  0  0
  6 14  1  0  0  0  0
  7 14  1  0  0  0  0
  7 15  1  0  0  0  0
  7 16  2  0  0  0  0
  8 11  1  0  0  0  0
  9 12  1  0  0  0  0
 10 13  1  0  0  0  0
 10 15  1  0  0  0  0
 11 17  1  0  0  0  0
 12 18  1  0  0  0  0
 13 17  1  0  0  0  0
 13 18  1  0  0  0  0
  1 19  1  0  0  0  0
  2 20  1  0  0  0  0
  3 21  1  0  0  0  0
  4 22  1  0  0  0  0
  5 23  1  0  0  0  0
  8 24  1  0  0  0  0
  8 25  1  0  0  0  0
  8 26  1  0  0  0  0
  9 27  1  0  0  0  0
  9 28  1  0  0  0  0
  9 29  1  0  0  0  0
 10 30  1  0  0  0  0
 10 31  1  0  0  0  0
 11 32  1  0  0  0  0
 11 33  1  0  0  0  0
 12 34  1  0  0  0  0
 12 35  1  0  0  0  0
 13 36  1  0  0  0  0
 14 37  1  0  0  0  0
 15 38  1  0  0  0  0
M  END
> <Name>
IA_120.cdx

> <SourceTag>
IA_120

> <Gold.Version>
5.2

> <Gold.Id.Protein>
6HGV|6HGV_protein|mol2

> <Gold.Goldscore.Fitness>
57.4183

> <Gold.Goldscore.Internal.Vdw>
-5.2429

> <Gold.Goldscore.Internal.Torsion>
-5.0785

> <Gold.Goldscore.External.Vdw>
38.4353

> <Gold.Goldscore.Internal.HBond>
0.0000

> <Gold.Goldscore.External.HBond>
6.4527

> <Gold.Goldscore.Internal.Correction>
-8.4384

> <Gold.Goldscore.Hbonds>
donor molecule, donor type, donor heavy atom, donor atom, acceptor molecule, acceptor atom, score
      P1  H  1247  3847       L1    16  0.63
      L1  H    14    37       P1   854  0.63
      L1  H    15    38       P1   854  0.24

> <Gold.Goldscore.Internal.Vdw.Weighted>
-5.2429

> <Gold.Goldscore.Internal.Torsion.Weighted>
-5.0785

> <Gold.Goldscore.External.Vdw.Weighted>
52.8486

> <Gold.Goldscore.Internal.HBond.Weighted>
0.0000

> <Gold.Goldscore.External.HBond.Weighted>
6.4527

> <Gold.Goldscore.Internal.Correction.Weighted>
-8.4384

> <Gold.Protein.RotatedTorsions>
[ 3781 1176 1175 1172 ] final   92.53 input   60.00 | X-H torsion
[ 3847 1247 1246 1244 ] final -171.89 input   60.00 | X-H torsion
[ 4507 1931 1930 1928 ] final  174.48 input   60.00 | X-H torsion
[ 3677 1070 1069 1066 ] final -116.42 input   60.00 | X-H torsion
[ 3525  925  924  922 ] final  150.05 input   59.99 | X-H torsion
[ 4531 1957 1955 1953 ] final -162.13 input   60.00 | X-H torsion

> <Gold.Protein.ActiveResidues>
 PHE267  PRO268  MET310  ASP335  TRP336  MET339  TYR343  THR360  PRO361  ILE363 
 PRO371  SER374  ILE375  ASN378  PHE381  TYR383  GLN384  PHE387  LEU408  LEU417 
 MET419  LEU428  TYR466  MET469  ASN472  ASP496  VAL498  LEU499  MET503  HIS524 
 TRP525 

> <Gold.Protein.RotatedAtoms>
   -2.0620  -30.2721  -29.8531 H   0  0  0  0  0  0  0  0  0  0  0  0  # atno 3525 bound_to 925 
  -11.5082  -23.6162  -31.4498 H   0  0  0  0  0  0  0  0  0  0  0  0  # atno 3677 bound_to 1070
  -10.2171  -37.3046  -32.4513 H   0  0  0  0  0  0  0  0  0  0  0  0  # atno 3781 bound_to 1176
  -14.7741  -27.3628  -37.9406 H   0  0  0  0  0  0  0  0  0  0  0  0  # atno 3847 bound_to 1247
  -12.8136  -23.8183  -40.1219 H   0  0  0  0  0  0  0  0  0  0  0  0  # atno 4507 bound_to 1931
   -1.3432  -33.5192  -36.9944 H   0  0  0  0  0  0  0  0  0  0  0  0  # atno 4531 bound_to 1957
  -10.6204  -36.9919  -33.9965 LP  0  0  0  0  0  0  0  0  0  0  0  0  # atno 5205 bound_to 1176
   -9.2720  -36.3336  -33.3522 LP  0  0  0  0  0  0  0  0  0  0  0  0  # atno 5206 bound_to 1176
  -14.7206  -28.8879  -37.3754 LP  0  0  0  0  0  0  0  0  0  0  0  0  # atno 5215 bound_to 1247
  -16.0726  -27.9915  -37.1877 LP  0  0  0  0  0  0  0  0  0  0  0  0  # atno 5216 bound_to 1247
  -12.6850  -24.7431  -38.7891 LP  0  0  0  0  0  0  0  0  0  0  0  0  # atno 5217 bound_to 1931
  -13.6980  -25.1782  -39.9938 LP  0  0  0  0  0  0  0  0  0  0  0  0  # atno 5218 bound_to 1931
  -11.5304  -22.2057  -30.6386 LP  0  0  0  0  0  0  0  0  0  0  0  0  # atno 5224 bound_to 1070
  -12.8185  -23.2074  -30.5757 LP  0  0  0  0  0  0  0  0  0  0  0  0  # atno 5225 bound_to 1070

$$$$
IA_84.cdx|SeH_inactivess_minimized|sdf|162|dock2
  -GOLD-   4172122243D 1   1.00000     0.00000

 35 34  0  0  0  0  0  0  0  0  1 V2000
  -12.0878  -26.1141  -35.6244 C   0  0  0  0  0  0  0  0  0  0  0  0
  -22.0165  -22.8045  -39.9997 C   0  0  0  0  0  0  0  0  0  0  0  0
   -9.8640  -25.9144  -34.5100 C   0  0  0  0  0  0  0  0  0  0  0  0
  -20.9539  -23.8857  -39.8853 C   0  0  0  0  0  0  0  0  0  0  0  0
  -19.9909  -23.6045  -38.7311 C   0  0  0  0  0  0  0  0  0  0  0  0
  -18.9232  -24.6949  -38.6224 C   0  0  0  0  0  0  0  0  0  0  0  0
  -17.8890  -24.4298  -37.5241 C   0  0  0  0  0  0  0  0  0  0  0  0
  -16.7179  -25.4155  -37.4537 C   0  0  0  0  0  0  0  0  0  0  0  0
  -15.5570  -24.9210  -36.5849 C   0  0  0  0  0  0  0  0  0  0  0  0
  -14.3703  -25.8803  -36.5937 C   0  0  0  0  0  0  0  0  0  0  0  0
  -11.1508  -25.3842  -34.8979 N   0  0  0  0  0  0  0  0  0  0  0  0
  -13.2432  -25.3674  -35.8650 N   0  0  0  0  0  0  0  0  0  0  0  0
  -11.9235  -27.2715  -36.0078 O   0  0  0  0  0  0  0  0  0  0  0  0
  -21.5474  -21.8194  -40.0844 H   0  0  0  0  0  0  0  0  0  0  0  0
  -22.6415  -22.9606  -40.8848 H   0  0  0  0  0  0  0  0  0  0  0  0
  -22.6651  -22.7972  -39.1179 H   0  0  0  0  0  0  0  0  0  0  0  0
   -9.2607  -25.1318  -34.0426 H   0  0  0  0  0  0  0  0  0  0  0  0
   -9.3314  -26.2928  -35.3866 H   0  0  0  0  0  0  0  0  0  0  0  0
   -9.9920  -26.7332  -33.7970 H   0  0  0  0  0  0  0  0  0  0  0  0
  -20.3985  -23.9447  -40.8286 H   0  0  0  0  0  0  0  0  0  0  0  0
  -21.4421  -24.8555  -39.7347 H   0  0  0  0  0  0  0  0  0  0  0  0
  -19.5088  -22.6313  -38.8838 H   0  0  0  0  0  0  0  0  0  0  0  0
  -20.5610  -23.5428  -37.7973 H   0  0  0  0  0  0  0  0  0  0  0  0
  -19.4004  -25.6686  -38.4633 H   0  0  0  0  0  0  0  0  0  0  0  0
  -18.3887  -24.7689  -39.5782 H   0  0  0  0  0  0  0  0  0  0  0  0
  -17.4909  -23.4165  -37.6612 H   0  0  0  0  0  0  0  0  0  0  0  0
  -18.3986  -24.4300  -36.5523 H   0  0  0  0  0  0  0  0  0  0  0  0
  -16.3564  -25.6429  -38.4631 H   0  0  0  0  0  0  0  0  0  0  0  0
  -17.1021  -26.3588  -37.0467 H   0  0  0  0  0  0  0  0  0  0  0  0
  -15.9055  -24.7716  -35.5557 H   0  0  0  0  0  0  0  0  0  0  0  0
  -15.2085  -23.9506  -36.9551 H   0  0  0  0  0  0  0  0  0  0  0  0
  -14.0348  -26.0495  -37.6218 H   0  0  0  0  0  0  0  0  0  0  0  0
  -14.6390  -26.8484  -36.1593 H   0  0  0  0  0  0  0  0  0  0  0  0
  -11.3830  -24.4336  -34.6277 H   0  0  0  0  0  0  0  0  0  0  0  0
  -13.3033  -24.4321  -35.4662 H   0  0  0  0  0  0  0  0  0  0  0  0
  1 11  1  0  0  0  0
  1 12  1  0  0  0  0
  1 13  2  0  0  0  0
  2  4  1  0  0  0  0
  3 11  1  0  0  0  0
  4  5  1  0  0  0  0
  5  6  1  0  0  0  0
  6  7  1  0  0  0  0
  7  8  1  0  0  0  0
  8  9  1  0  0  0  0
  9 10  1  0  0  0  0
 10 12  1  0  0  0  0
  2 14  1  0  0  0  0
  2 15  1  0  0  0  0
  2 16  1  0  0  0  0
  3 17  1  0  0  0  0
  3 18  1  0  0  0  0
  3 19  1  0  0  0  0
  4 20  1  0  0  0  0
  4 21  1  0  0  0  0
  5 22  1  0  0  0  0
  5 23  1  0  0  0  0
  6 24  1  0  0  0  0
  6 25  1  0  0  0  0
  7 26  1  0  0  0  0
  7 27  1  0  0  0  0
  8 28  1  0  0  0  0
  8 29  1  0  0  0  0
  9 30  1  0  0  0  0
  9 31  1  0  0  0  0
 10 32  1  0  0  0  0
 10 33  1  0  0  0  0
 11 34  1  0  0  0  0
 12 35  1  0  0  0  0
M  END
> <Name>
IA_84.cdx

> <SourceTag>
IA_84

> <Gold.Version>
5.2

> <Gold.Id.Protein>
6HGV|6HGV_protein|mol2

> <Gold.Goldscore.Fitness>
47.4566

> <Gold.Goldscore.Internal.Vdw>
-2.7791

> <Gold.Goldscore.Internal.Torsion>
-1.8673

> <Gold.Goldscore.External.Vdw>
32.7616

> <Gold.Goldscore.Internal.HBond>
0.0000

> <Gold.Goldscore.External.HBond>
3.1564

> <Gold.Goldscore.Internal.Correction>
-3.8994

> <Gold.Goldscore.Hbonds>
donor molecule, donor type, donor heavy atom, donor atom, acceptor molecule, acceptor atom, score
      L1  H    12    35       P1   853  0.53

> <Gold.Goldscore.Internal.Vdw.Weighted>
-2.7791

> <Gold.Goldscore.Internal.Torsion.Weighted>
-1.8673

> <Gold.Goldscore.External.Vdw.Weighted>
45.0471

> <Gold.Goldscore.Internal.HBond.Weighted>
0.0000

> <Gold.Goldscore.External.HBond.Weighted>
3.1564

> <Gold.Goldscore.Internal.Correction.Weighted>
-3.8994

> <Gold.Protein.RotatedTorsions>
[ 3781 1176 1175 1172 ] final -137.24 input   60.00 | X-H torsion
[ 3847 1247 1246 1244 ] final  -11.74 input   60.00 | X-H torsion
[ 4507 1931 1930 1928 ] final   78.40 input   60.00 | X-H torsion
[ 3677 1070 1069 1066 ] final -110.68 input   60.00 | X-H torsion
[ 3525  925  924  922 ] final   51.40 input   59.99 | X-H torsion
[ 4531 1957 1955 1953 ] final   -5.29 input   60.00 | X-H torsion

> <Gold.Protein.ActiveResidues>
 PHE267  PRO268  MET310  ASP335  TRP336  MET339  TYR343  THR360  PRO361  ILE363 
 PRO371  SER374  ILE375  ASN378  PHE381  TYR383  GLN384  PHE387  LEU408  LEU417 
 MET419  LEU428  TYR466  MET469  ASN472  ASP496  VAL498  LEU499  MET503  HIS524 
 TRP525 

> <Gold.Protein.RotatedAtoms>
   -2.9337  -29.7991  -30.8694 H   0  0  0  0  0  0  0  0  0  0  0  0  # atno 3525 bound_to 925 
  -11.5842  -23.6705  -31.4434 H   0  0  0  0  0  0  0  0  0  0  0  0  # atno 3677 bound_to 1070
   -9.3290  -36.3159  -33.5091 H   0  0  0  0  0  0  0  0  0  0  0  0  # atno 3781 bound_to 1176
  -15.8418  -28.5792  -37.0562 H   0  0  0  0  0  0  0  0  0  0  0  0  # atno 3847 bound_to 1247
  -12.5128  -24.4113  -38.8987 H   0  0  0  0  0  0  0  0  0  0  0  0  # atno 4507 bound_to 1931
   -2.7967  -32.4397  -36.6994 H   0  0  0  0  0  0  0  0  0  0  0  0  # atno 4531 bound_to 1957
  -10.0784  -37.2314  -32.3918 LP  0  0  0  0  0  0  0  0  0  0  0  0  # atno 5205 bound_to 1176
  -10.7083  -37.0898  -33.8917 LP  0  0  0  0  0  0  0  0  0  0  0  0  # atno 5206 bound_to 1176
  -15.3721  -27.1934  -37.7680 LP  0  0  0  0  0  0  0  0  0  0  0  0  # atno 5215 bound_to 1247
  -14.3459  -28.4610  -37.6858 LP  0  0  0  0  0  0  0  0  0  0  0  0  # atno 5216 bound_to 1247
  -13.6135  -25.3447  -39.6504 LP  0  0  0  0  0  0  0  0  0  0  0  0  # atno 5217 bound_to 1931
  -13.0724  -23.9794  -40.3644 LP  0  0  0  0  0  0  0  0  0  0  0  0  # atno 5218 bound_to 1931
  -11.4568  -22.2335  -30.6906 LP  0  0  0  0  0  0  0  0  0  0  0  0  # atno 5224 bound_to 1070
  -12.8156  -23.1248  -30.5302 LP  0  0  0  0  0  0  0  0  0  0  0  0  # atno 5225 bound_to 1070

$$$$
IA_71.cdx|SeH_inactivess_minimized|sdf|149|dock7
  -GOLD-   4172122 63D 1   1.00000     0.00000

 14 13  0  0  0  0  0  0  0  0  1 V2000
  -12.2673  -25.7955  -36.1791 C   0  0  0  0  0  0  0  0  0  0  0  0
  -10.2127  -25.6271  -34.7728 C   0  0  0  0  0  0  0  0  0  0  0  0
  -14.4387  -25.5691  -37.3780 C   0  0  0  0  0  0  0  0  0  0  0  0
  -11.4936  -25.1370  -35.2269 N   0  0  0  0  0  0  0  0  0  0  0  0
  -13.4511  -25.1069  -36.4313 N   0  0  0  0  0  0  0  0  0  0  0  0
  -11.9484  -26.8498  -36.7271 O   0  0  0  0  0  0  0  0  0  0  0  0
  -10.3483  -26.5240  -34.1629 H   0  0  0  0  0  0  0  0  0  0  0  0
   -9.7083  -24.8657  -34.1717 H   0  0  0  0  0  0  0  0  0  0  0  0
   -9.5783  -25.8755  -35.6279 H   0  0  0  0  0  0  0  0  0  0  0  0
  -15.2345  -26.1084  -36.8577 H   0  0  0  0  0  0  0  0  0  0  0  0
  -13.9777  -26.2402  -38.1078 H   0  0  0  0  0  0  0  0  0  0  0  0
  -14.8780  -24.7211  -37.9103 H   0  0  0  0  0  0  0  0  0  0  0  0
  -11.8468  -24.2706  -34.8328 H   0  0  0  0  0  0  0  0  0  0  0  0
  -13.6519  -24.2675  -35.8968 H   0  0  0  0  0  0  0  0  0  0  0  0
  1  4  1  0  0  0  0
  1  5  1  0  0  0  0
  1  6  2  0  0  0  0
  2  4  1  0  0  0  0
  3  5  1  0  0  0  0
  2  7  1  0  0  0  0
  2  8  1  0  0  0  0
  2  9  1  0  0  0  0
  3 10  1  0  0  0  0
  3 11  1  0  0  0  0
  3 12  1  0  0  0  0
  4 13  1  0  0  0  0
  5 14  1  0  0  0  0
M  END
> <Name>
IA_71.cdx

> <SourceTag>
IA_71

> <Gold.Version>
5.2

> <Gold.Id.Protein>
6HGV|6HGV_protein|mol2

> <Gold.Goldscore.Fitness>
26.5165

> <Gold.Goldscore.Internal.Vdw>
-0.7313

> <Gold.Goldscore.Internal.Torsion>
-1.1583

> <Gold.Goldscore.External.Vdw>
15.1805

> <Gold.Goldscore.Internal.HBond>
0.0000

> <Gold.Goldscore.External.HBond>
5.8430

> <Gold.Goldscore.Internal.Correction>
-1.6898

> <Gold.Goldscore.Hbonds>
donor molecule, donor type, donor heavy atom, donor atom, acceptor molecule, acceptor atom, score
      L1  H     5    14       P1   853  0.97

> <Gold.Goldscore.Internal.Vdw.Weighted>
-0.7313

> <Gold.Goldscore.Internal.Torsion.Weighted>
-1.1583

> <Gold.Goldscore.External.Vdw.Weighted>
20.8732

> <Gold.Goldscore.Internal.HBond.Weighted>
0.0000

> <Gold.Goldscore.External.HBond.Weighted>
5.8430

> <Gold.Goldscore.Internal.Correction.Weighted>
-1.6898

> <Gold.Protein.RotatedTorsions>
[ 3781 1176 1175 1172 ] final   88.63 input   60.00 | X-H torsion
[ 3847 1247 1246 1244 ] final   81.37 input   60.00 | X-H torsion
[ 4507 1931 1930 1928 ] final  103.97 input   60.00 | X-H torsion
[ 3677 1070 1069 1066 ] final -108.69 input   60.00 | X-H torsion
[ 3525  925  924  922 ] final -155.26 input   59.99 | X-H torsion
[ 4531 1957 1955 1953 ] final -177.44 input   60.00 | X-H torsion

> <Gold.Protein.ActiveResidues>
 PHE267  PRO268  MET310  ASP335  TRP336  MET339  TYR343  THR360  PRO361  ILE363 
 PRO371  SER374  ILE375  ASN378  PHE381  TYR383  GLN384  PHE387  LEU408  LEU417 
 MET419  LEU428  TYR466  MET469  ASN472  ASP496  VAL498  LEU499  MET503  HIS524 
 TRP525 

> <Gold.Protein.RotatedAtoms>
   -2.5106  -30.1426  -29.1309 H   0  0  0  0  0  0  0  0  0  0  0  0  # atno 3525 bound_to 925 
  -11.6116  -23.6880  -31.4398 H   0  0  0  0  0  0  0  0  0  0  0  0  # atno 3677 bound_to 1070
  -10.2693  -37.3293  -32.4783 H   0  0  0  0  0  0  0  0  0  0  0  0  # atno 3781 bound_to 1176
  -14.5658  -28.7781  -37.4809 H   0  0  0  0  0  0  0  0  0  0  0  0  # atno 3847 bound_to 1247
  -12.4328  -24.0899  -39.1476 H   0  0  0  0  0  0  0  0  0  0  0  0  # atno 4507 bound_to 1931
   -1.4742  -33.7304  -36.9732 H   0  0  0  0  0  0  0  0  0  0  0  0  # atno 4531 bound_to 1957
  -10.5818  -36.9534  -34.0304 LP  0  0  0  0  0  0  0  0  0  0  0  0  # atno 5205 bound_to 1176
   -9.2580  -36.3471  -33.2911 LP  0  0  0  0  0  0  0  0  0  0  0  0  # atno 5206 bound_to 1176
  -16.0424  -28.1965  -37.1211 LP  0  0  0  0  0  0  0  0  0  0  0  0  # atno 5215 bound_to 1247
  -14.9606  -27.2575  -37.9050 LP  0  0  0  0  0  0  0  0  0  0  0  0  # atno 5216 bound_to 1247
  -13.4199  -25.3766  -39.2823 LP  0  0  0  0  0  0  0  0  0  0  0  0  # atno 5217 bound_to 1931
  -13.3465  -24.2711  -40.4819 LP  0  0  0  0  0  0  0  0  0  0  0  0  # atno 5218 bound_to 1931
  -11.4323  -22.2450  -30.7092 LP  0  0  0  0  0  0  0  0  0  0  0  0  # atno 5224 bound_to 1070
  -12.8126  -23.0958  -30.5151 LP  0  0  0  0  0  0  0  0  0  0  0  0  # atno 5225 bound_to 1070

$$$$
IA_35|SeH_inactivess_minimized|sdf|121|dock5
  -GOLD-   4172121223D 1   1.00000     0.00000

 43 43  0  0  0  0  0  0  0  0  1 V2000
  -10.9687  -33.5959  -34.4880 C   0  0  0  0  0  0  0  0  0  0  0  0
  -11.3143  -32.2490  -34.5985 C   0  0  0  0  0  0  0  0  0  0  0  0
   -9.8955  -34.1031  -35.2207 C   0  0  0  0  0  0  0  0  0  0  0  0
   -9.5141  -31.9166  -36.1752 C   0  0  0  0  0  0  0  0  0  0  0  0
  -10.5870  -31.4093  -35.4423 C   0  0  0  0  0  0  0  0  0  0  0  0
   -9.1683  -33.2634  -36.0645 C   0  0  0  0  0  0  0  0  0  0  0  0
  -12.5885  -25.9349  -35.1408 C   0  0  0  0  0  0  0  0  0  0  0  0
   -9.9268  -29.2044  -35.1286 C   0  0  0  0  0  0  0  0  0  0  0  0
  -19.4753  -25.0050  -37.6697 C   0  0  0  0  0  0  0  0  0  0  0  0
  -11.3294  -25.1127  -34.9867 C   0  0  0  0  0  0  0  0  0  0  0  0
  -18.0214  -24.5620  -37.7087 C   0  0  0  0  0  0  0  0  0  0  0  0
  -10.3453  -25.7511  -34.0119 C   0  0  0  0  0  0  0  0  0  0  0  0
  -17.1468  -25.4306  -36.8050 C   0  0  0  0  0  0  0  0  0  0  0  0
  -15.7077  -24.9209  -36.7680 C   0  0  0  0  0  0  0  0  0  0  0  0
   -9.5965  -26.9129  -34.6484 C   0  0  0  0  0  0  0  0  0  0  0  0
  -14.8514  -25.7248  -35.7999 C   0  0  0  0  0  0  0  0  0  0  0  0
  -12.7386  -27.0790  -34.7347 O   0  0  0  0  0  0  0  0  0  0  0  0
   -8.7347  -29.4703  -35.0409 O   0  0  0  0  0  0  0  0  0  0  0  0
  -10.9336  -30.0602  -35.5535 O   0  0  0  0  0  0  0  0  0  0  0  0
  -13.5233  -25.1912  -35.8042 O   0  0  0  0  0  0  0  0  0  0  0  0
  -10.4957  -27.9995  -34.8206 O   0  0  0  0  0  0  0  0  0  0  0  0
   -7.8453  -33.8903  -36.9688 Cl  0  0  0  0  0  0  0  0  0  0  0  0
  -11.5358  -34.2488  -33.8310 H   0  0  0  0  0  0  0  0  0  0  0  0
  -12.1515  -31.8596  -34.0258 H   0  0  0  0  0  0  0  0  0  0  0  0
   -9.6377  -35.1546  -35.1249 H   0  0  0  0  0  0  0  0  0  0  0  0
   -8.9527  -31.2553  -36.8313 H   0  0  0  0  0  0  0  0  0  0  0  0
  -19.8708  -24.9636  -36.6497 H   0  0  0  0  0  0  0  0  0  0  0  0
  -20.0969  -24.3670  -38.3058 H   0  0  0  0  0  0  0  0  0  0  0  0
  -19.5674  -26.0350  -38.0280 H   0  0  0  0  0  0  0  0  0  0  0  0
  -10.8618  -25.0159  -35.9730 H   0  0  0  0  0  0  0  0  0  0  0  0
  -11.6135  -24.1176  -34.6263 H   0  0  0  0  0  0  0  0  0  0  0  0
  -17.9562  -23.5137  -37.3947 H   0  0  0  0  0  0  0  0  0  0  0  0
  -17.6571  -24.6149  -38.7413 H   0  0  0  0  0  0  0  0  0  0  0  0
   -9.6249  -25.0047  -33.6533 H   0  0  0  0  0  0  0  0  0  0  0  0
  -10.8707  -26.1028  -33.1145 H   0  0  0  0  0  0  0  0  0  0  0  0
  -17.5605  -25.4373  -35.7892 H   0  0  0  0  0  0  0  0  0  0  0  0
  -17.1605  -26.4664  -37.1661 H   0  0  0  0  0  0  0  0  0  0  0  0
  -15.6869  -23.8630  -36.4782 H   0  0  0  0  0  0  0  0  0  0  0  0
  -15.2629  -24.9659  -37.7698 H   0  0  0  0  0  0  0  0  0  0  0  0
   -9.1991  -26.6313  -35.6287 H   0  0  0  0  0  0  0  0  0  0  0  0
   -8.7707  -27.2422  -34.0099 H   0  0  0  0  0  0  0  0  0  0  0  0
  -14.8049  -26.7767  -36.0998 H   0  0  0  0  0  0  0  0  0  0  0  0
  -15.2487  -25.6616  -34.7820 H   0  0  0  0  0  0  0  0  0  0  0  0
  1  2  1  0  0  0  0
  1  3  2  0  0  0  0
  2  5  2  0  0  0  0
  3  6  1  0  0  0  0
  4  5  1  0  0  0  0
  4  6  2  0  0  0  0
  5 19  1  0  0  0  0
  6 22  1  0  0  0  0
  7 10  1  0  0  0  0
  7 17  2  0  0  0  0
  7 20  1  0  0  0  0
  8 18  2  0  0  0  0
  8 19  1  0  0  0  0
  8 21  1  0  0  0  0
  9 11  1  0  0  0  0
 10 12  1  0  0  0  0
 11 13  1  0  0  0  0
 12 15  1  0  0  0  0
 13 14  1  0  0  0  0
 14 16  1  0  0  0  0
 15 21  1  0  0  0  0
 16 20  1  0  0  0  0
  1 23  1  0  0  0  0
  2 24  1  0  0  0  0
  3 25  1  0  0  0  0
  4 26  1  0  0  0  0
  9 27  1  0  0  0  0
  9 28  1  0  0  0  0
  9 29  1  0  0  0  0
 10 30  1  0  0  0  0
 10 31  1  0  0  0  0
 11 32  1  0  0  0  0
 11 33  1  0  0  0  0
 12 34  1  0  0  0  0
 12 35  1  0  0  0  0
 13 36  1  0  0  0  0
 13 37  1  0  0  0  0
 14 38  1  0  0  0  0
 14 39  1  0  0  0  0
 15 40  1  0  0  0  0
 15 41  1  0  0  0  0
 16 42  1  0  0  0  0
 16 43  1  0  0  0  0
M  END
> <Name>
IA_35

> <SourceTag>
IA_35

> <Gold.Version>
5.2

> <Gold.Id.Protein>
6HGV|6HGV_protein|mol2

> <Gold.Goldscore.Fitness>
62.6333

> <Gold.Goldscore.Internal.Vdw>
-4.0122

> <Gold.Goldscore.Internal.Torsion>
-6.6161

> <Gold.Goldscore.External.Vdw>
47.3049

> <Gold.Goldscore.Internal.HBond>
0.0000

> <Gold.Goldscore.External.HBond>
2.0000

> <Gold.Goldscore.Internal.Correction>
-6.2174

> <Gold.Goldscore.Hbonds>
donor molecule, donor type, donor heavy atom, donor atom, acceptor molecule, acceptor atom, score
      P1  H  1256  3854       L1    19  1.00

> <Gold.Goldscore.Internal.Vdw.Weighted>
-4.0122

> <Gold.Goldscore.Internal.Torsion.Weighted>
-6.6161

> <Gold.Goldscore.External.Vdw.Weighted>
65.0442

> <Gold.Goldscore.Internal.HBond.Weighted>
0.0000

> <Gold.Goldscore.External.HBond.Weighted>
2.0000

> <Gold.Goldscore.Internal.Correction.Weighted>
-6.2174

> <Gold.Protein.RotatedTorsions>
[ 3781 1176 1175 1172 ] final  117.24 input   60.00 | X-H torsion
[ 3847 1247 1246 1244 ] final  143.34 input   60.00 | X-H torsion
[ 4507 1931 1930 1928 ] final   23.13 input   60.00 | X-H torsion
[ 3677 1070 1069 1066 ] final  -80.07 input   60.00 | X-H torsion
[ 3525  925  924  922 ] final   62.20 input   59.99 | X-H torsion
[ 4531 1957 1955 1953 ] final   54.50 input   60.00 | X-H torsion

> <Gold.Protein.ActiveResidues>
 PHE267  PRO268  MET310  ASP335  TRP336  MET339  TYR343  THR360  PRO361  ILE363 
 PRO371  SER374  ILE375  ASN378  PHE381  TYR383  GLN384  PHE387  LEU408  LEU417 
 MET419  LEU428  TYR466  MET469  ASN472  ASP496  VAL498  LEU499  MET503  HIS524 
 TRP525 

> <Gold.Protein.RotatedAtoms>
   -2.7725  -29.8699  -30.8634 H   0  0  0  0  0  0  0  0  0  0  0  0  # atno 3525 bound_to 925 
  -12.0321  -23.8390  -31.3191 H   0  0  0  0  0  0  0  0  0  0  0  0  # atno 3677 bound_to 1070
   -9.8774  -37.1079  -32.3714 H   0  0  0  0  0  0  0  0  0  0  0  0  # atno 3781 bound_to 1176
  -14.3485  -27.9327  -37.8896 H   0  0  0  0  0  0  0  0  0  0  0  0  # atno 3847 bound_to 1247
  -13.0048  -25.1267  -38.8799 H   0  0  0  0  0  0  0  0  0  0  0  0  # atno 4507 bound_to 1931
   -3.0789  -33.3284  -36.6611 H   0  0  0  0  0  0  0  0  0  0  0  0  # atno 4531 bound_to 1957
  -10.7957  -37.2160  -33.7105 LP  0  0  0  0  0  0  0  0  0  0  0  0  # atno 5205 bound_to 1176
   -9.4388  -36.3076  -33.7187 LP  0  0  0  0  0  0  0  0  0  0  0  0  # atno 5206 bound_to 1176
  -15.3856  -28.9112  -37.1055 LP  0  0  0  0  0  0  0  0  0  0  0  0  # atno 5215 bound_to 1247
  -15.8362  -27.3943  -37.5089 LP  0  0  0  0  0  0  0  0  0  0  0  0  # atno 5216 bound_to 1247
  -13.6443  -24.8108  -40.3425 LP  0  0  0  0  0  0  0  0  0  0  0  0  # atno 5217 bound_to 1931
  -12.5461  -23.7928  -39.6912 LP  0  0  0  0  0  0  0  0  0  0  0  0  # atno 5218 bound_to 1931
  -11.1632  -22.5034  -30.9886 LP  0  0  0  0  0  0  0  0  0  0  0  0  # atno 5224 bound_to 1070
  -12.6582  -22.6853  -30.3573 LP  0  0  0  0  0  0  0  0  0  0  0  0  # atno 5225 bound_to 1070

$$$$
IA_100.cdx|SeH_inactivess_minimized|sdf|2|dock7
  -GOLD-   4172118203D 1   1.00000     0.00000

 59 58  0  0  0  0  0  0  0  0  1 V2000
   -7.5382  -29.3966  -35.2936 C   0  0  0  0  0  0  0  0  0  0  0  0
  -24.0685  -22.8219  -37.5485 C   0  0  0  0  0  0  0  0  0  0  0  0
   -3.7504  -32.4417  -34.5670 C   0  0  0  0  0  0  0  0  0  0  0  0
  -22.7813  -23.2617  -38.2296 C   0  0  0  0  0  0  0  0  0  0  0  0
   -4.6759  -31.3089  -34.1465 C   0  0  0  0  0  0  0  0  0  0  0  0
  -21.7611  -23.7764  -37.2135 C   0  0  0  0  0  0  0  0  0  0  0  0
  -20.3908  -24.0796  -37.8264 C   0  0  0  0  0  0  0  0  0  0  0  0
  -19.3799  -24.6262  -36.8160 C   0  0  0  0  0  0  0  0  0  0  0  0
  -17.9737  -24.6871  -37.4172 C   0  0  0  0  0  0  0  0  0  0  0  0
  -16.9760  -25.3069  -36.4373 C   0  0  0  0  0  0  0  0  0  0  0  0
  -15.5337  -25.0793  -36.8931 C   0  0  0  0  0  0  0  0  0  0  0  0
  -14.5379  -25.7405  -35.9388 C   0  0  0  0  0  0  0  0  0  0  0  0
  -13.0961  -25.5241  -36.4015 C   0  0  0  0  0  0  0  0  0  0  0  0
  -12.0952  -26.0264  -35.3583 C   0  0  0  0  0  0  0  0  0  0  0  0
  -10.6564  -25.7147  -35.7763 C   0  0  0  0  0  0  0  0  0  0  0  0
   -9.6054  -26.3210  -34.8410 C   0  0  0  0  0  0  0  0  0  0  0  0
   -5.3859  -30.6589  -35.3279 C   0  0  0  0  0  0  0  0  0  0  0  0
   -9.4553  -27.8336  -35.0009 C   0  0  0  0  0  0  0  0  0  0  0  0
   -6.2015  -29.5352  -34.9293 N   0  0  0  0  0  0  0  0  0  0  0  0
   -8.0692  -28.2286  -34.7734 N   0  0  0  0  0  0  0  0  0  0  0  0
   -8.1590  -30.2045  -35.9832 O   0  0  0  0  0  0  0  0  0  0  0  0
  -24.7565  -22.3897  -38.2817 H   0  0  0  0  0  0  0  0  0  0  0  0
  -24.5693  -23.6703  -37.0714 H   0  0  0  0  0  0  0  0  0  0  0  0
  -23.8690  -22.0651  -36.7830 H   0  0  0  0  0  0  0  0  0  0  0  0
   -4.2865  -33.1836  -35.1675 H   0  0  0  0  0  0  0  0  0  0  0  0
   -2.9257  -32.0497  -35.1709 H   0  0  0  0  0  0  0  0  0  0  0  0
   -3.3189  -32.9479  -33.6980 H   0  0  0  0  0  0  0  0  0  0  0  0
  -23.0213  -24.0432  -38.9583 H   0  0  0  0  0  0  0  0  0  0  0  0
  -22.3610  -22.4151  -38.7843 H   0  0  0  0  0  0  0  0  0  0  0  0
   -4.0833  -30.5469  -33.6268 H   0  0  0  0  0  0  0  0  0  0  0  0
   -5.4118  -31.6922  -33.4296 H   0  0  0  0  0  0  0  0  0  0  0  0
  -21.6246  -23.0210  -36.4296 H   0  0  0  0  0  0  0  0  0  0  0  0
  -22.1504  -24.6754  -36.7201 H   0  0  0  0  0  0  0  0  0  0  0  0
  -19.9978  -23.1511  -38.2591 H   0  0  0  0  0  0  0  0  0  0  0  0
  -20.5074  -24.7890  -38.6549 H   0  0  0  0  0  0  0  0  0  0  0  0
  -19.6750  -25.6314  -36.4951 H   0  0  0  0  0  0  0  0  0  0  0  0
  -19.3700  -23.9887  -35.9237 H   0  0  0  0  0  0  0  0  0  0  0  0
  -17.9953  -25.2767  -38.3418 H   0  0  0  0  0  0  0  0  0  0  0  0
  -17.6442  -23.6760  -37.6858 H   0  0  0  0  0  0  0  0  0  0  0  0
  -17.1197  -24.8703  -35.4414 H   0  0  0  0  0  0  0  0  0  0  0  0
  -17.1680  -26.3833  -36.3491 H   0  0  0  0  0  0  0  0  0  0  0  0
  -15.3992  -25.4849  -37.9032 H   0  0  0  0  0  0  0  0  0  0  0  0
  -15.3314  -24.0027  -36.9473 H   0  0  0  0  0  0  0  0  0  0  0  0
  -14.7464  -26.8156  -35.8777 H   0  0  0  0  0  0  0  0  0  0  0  0
  -14.6660  -25.3284  -34.9306 H   0  0  0  0  0  0  0  0  0  0  0  0
  -12.9327  -26.0491  -37.3505 H   0  0  0  0  0  0  0  0  0  0  0  0
  -12.9265  -24.4568  -36.5888 H   0  0  0  0  0  0  0  0  0  0  0  0
  -12.2140  -27.1087  -35.2276 H   0  0  0  0  0  0  0  0  0  0  0  0
  -12.3171  -25.5555  -34.3943 H   0  0  0  0  0  0  0  0  0  0  0  0
  -10.4837  -26.1102  -36.7851 H   0  0  0  0  0  0  0  0  0  0  0  0
  -10.5142  -24.6287  -35.8347 H   0  0  0  0  0  0  0  0  0  0  0  0
   -9.9002  -26.0931  -33.8083 H   0  0  0  0  0  0  0  0  0  0  0  0
   -8.6392  -25.8284  -35.0084 H   0  0  0  0  0  0  0  0  0  0  0  0
   -4.6504  -30.2817  -36.0455 H   0  0  0  0  0  0  0  0  0  0  0  0
   -6.0316  -31.3747  -35.8463 H   0  0  0  0  0  0  0  0  0  0  0  0
   -9.7425  -28.1460  -36.0093 H   0  0  0  0  0  0  0  0  0  0  0  0
  -10.1030  -28.3565  -34.2893 H   0  0  0  0  0  0  0  0  0  0  0  0
   -5.7797  -28.8113  -34.3558 H   0  0  0  0  0  0  0  0  0  0  0  0
   -7.5079  -27.6400  -34.1777 H   0  0  0  0  0  0  0  0  0  0  0  0
  1 19  1  0  0  0  0
  1 20  1  0  0  0  0
  1 21  2  0  0  0  0
  2  4  1  0  0  0  0
  3  5  1  0  0  0  0
  4  6  1  0  0  0  0
  5 17  1  0  0  0  0
  6  7  1  0  0  0  0
  7  8  1  0  0  0  0
  8  9  1  0  0  0  0
  9 10  1  0  0  0  0
 10 11  1  0  0  0  0
 11 12  1  0  0  0  0
 12 13  1  0  0  0  0
 13 14  1  0  0  0  0
 14 15  1  0  0  0  0
 15 16  1  0  0  0  0
 16 18  1  0  0  0  0
 17 19  1  0  0  0  0
 18 20  1  0  0  0  0
  2 22  1  0  0  0  0
  2 23  1  0  0  0  0
  2 24  1  0  0  0  0
  3 25  1  0  0  0  0
  3 26  1  0  0  0  0
  3 27  1  0  0  0  0
  4 28  1  0  0  0  0
  4 29  1  0  0  0  0
  5 30  1  0  0  0  0
  5 31  1  0  0  0  0
  6 32  1  0  0  0  0
  6 33  1  0  0  0  0
  7 34  1  0  0  0  0
  7 35  1  0  0  0  0
  8 36  1  0  0  0  0
  8 37  1  0  0  0  0
  9 38  1  0  0  0  0
  9 39  1  0  0  0  0
 10 40  1  0  0  0  0
 10 41  1  0  0  0  0
 11 42  1  0  0  0  0
 11 43  1  0  0  0  0
 12 44  1  0  0  0  0
 12 45  1  0  0  0  0
 13 46  1  0  0  0  0
 13 47  1  0  0  0  0
 14 48  1  0  0  0  0
 14 49  1  0  0  0  0
 15 50  1  0  0  0  0
 15 51  1  0  0  0  0
 16 52  1  0  0  0  0
 16 53  1  0  0  0  0
 17 54  1  0  0  0  0
 17 55  1  0  0  0  0
 18 56  1  0  0  0  0
 18 57  1  0  0  0  0
 19 58  1  0  0  0  0
 20 59  1  0  0  0  0
M  END
> <Name>
IA_100.cdx

> <SourceTag>
IA_100

> <Gold.Version>
5.2

> <Gold.Id.Protein>
6HGV|6HGV_protein|mol2

> <Gold.Goldscore.Fitness>
68.3426

> <Gold.Goldscore.Internal.Vdw>
-7.7822

> <Gold.Goldscore.Internal.Torsion>
-4.3057

> <Gold.Goldscore.External.Vdw>
52.8582

> <Gold.Goldscore.Internal.HBond>
0.0000

> <Gold.Goldscore.External.HBond>
0.0000

> <Gold.Goldscore.Internal.Correction>
-7.7505

> <Gold.Goldscore.Internal.Vdw.Weighted>
-7.7822

> <Gold.Goldscore.Internal.Torsion.Weighted>
-4.3057

> <Gold.Goldscore.External.Vdw.Weighted>
72.6800

> <Gold.Goldscore.Internal.HBond.Weighted>
0.0000

> <Gold.Goldscore.External.HBond.Weighted>
0.0000

> <Gold.Goldscore.Internal.Correction.Weighted>
-7.7505

> <Gold.Protein.RotatedTorsions>
[ 3781 1176 1175 1172 ] final -162.01 input   60.00 | X-H torsion
[ 3847 1247 1246 1244 ] final   50.82 input   60.00 | X-H torsion
[ 4507 1931 1930 1928 ] final  130.06 input   60.00 | X-H torsion
[ 3677 1070 1069 1066 ] final -107.41 input   60.00 | X-H torsion
[ 3525  925  924  922 ] final   50.35 input   59.99 | X-H torsion
[ 4531 1957 1955 1953 ] final  -92.60 input   60.00 | X-H torsion

> <Gold.Protein.ActiveResidues>
 PHE267  PRO268  MET310  ASP335  TRP336  MET339  TYR343  THR360  PRO361  ILE363 
 PRO371  SER374  ILE375  ASN378  PHE381  TYR383  GLN384  PHE387  LEU408  LEU417 
 MET419  LEU428  TYR466  MET469  ASN472  ASP496  VAL498  LEU499  MET503  HIS524 
 TRP525 

> <Gold.Protein.RotatedAtoms>
   -2.9495  -29.7923  -30.8683 H   0  0  0  0  0  0  0  0  0  0  0  0  # atno 3525 bound_to 925 
  -11.6293  -23.6987  -31.4372 H   0  0  0  0  0  0  0  0  0  0  0  0  # atno 3677 bound_to 1070
   -9.2427  -36.4017  -33.1263 H   0  0  0  0  0  0  0  0  0  0  0  0  # atno 3781 bound_to 1176
  -14.9677  -28.9548  -37.2556 H   0  0  0  0  0  0  0  0  0  0  0  0  # atno 3847 bound_to 1247
  -12.4786  -23.8610  -39.4999 H   0  0  0  0  0  0  0  0  0  0  0  0  # atno 4507 bound_to 1931
   -1.5272  -32.4687  -36.9413 H   0  0  0  0  0  0  0  0  0  0  0  0  # atno 4531 bound_to 1957
  -10.4092  -37.3874  -32.5644 LP  0  0  0  0  0  0  0  0  0  0  0  0  # atno 5205 bound_to 1176
  -10.4644  -36.8473  -34.1045 LP  0  0  0  0  0  0  0  0  0  0  0  0  # atno 5206 bound_to 1176
  -16.0411  -27.7326  -37.2991 LP  0  0  0  0  0  0  0  0  0  0  0  0  # atno 5215 bound_to 1247
  -14.5572  -27.5435  -37.9539 LP  0  0  0  0  0  0  0  0  0  0  0  0  # atno 5216 bound_to 1247
  -13.1511  -25.2480  -38.9783 LP  0  0  0  0  0  0  0  0  0  0  0  0  # atno 5217 bound_to 1931
  -13.5692  -24.6302  -40.4310 LP  0  0  0  0  0  0  0  0  0  0  0  0  # atno 5218 bound_to 1931
  -11.4169  -22.2529  -30.7212 LP  0  0  0  0  0  0  0  0  0  0  0  0  # atno 5224 bound_to 1070
  -12.8100  -23.0771  -30.5057 LP  0  0  0  0  0  0  0  0  0  0  0  0  # atno 5225 bound_to 1070

$$$$
IA_136.cdx|SeH_inactivess_minimized|sdf|38|dock2
  -GOLD-   4172119243D 1   1.00000     0.00000

 38 39  0  0  0  0  0  0  0  0  1 V2000
  -20.3723  -24.0928  -38.4691 C   0  0  0  0  0  0  0  0  0  0  0  0
  -20.0789  -25.0496  -37.5020 C   0  0  0  0  0  0  0  0  0  0  0  0
  -19.3461  -23.3419  -39.0430 C   0  0  0  0  0  0  0  0  0  0  0  0
  -18.7579  -25.2591  -37.1051 C   0  0  0  0  0  0  0  0  0  0  0  0
  -16.9651  -22.7928  -39.2225 C   0  0  0  0  0  0  0  0  0  0  0  0
  -15.6441  -23.0024  -38.8255 C   0  0  0  0  0  0  0  0  0  0  0  0
  -16.3770  -24.7100  -37.2845 C   0  0  0  0  0  0  0  0  0  0  0  0
  -18.0107  -23.5395  -38.6554 C   0  0  0  0  0  0  0  0  0  0  0  0
  -17.7123  -24.5125  -37.6720 C   0  0  0  0  0  0  0  0  0  0  0  0
  -15.3506  -23.9591  -37.8584 C   0  0  0  0  0  0  0  0  0  0  0  0
  -13.3798  -25.3864  -37.1809 C   0  0  0  0  0  0  0  0  0  0  0  0
  -10.5949  -25.3557  -32.9401 C   0  0  0  0  0  0  0  0  0  0  0  0
   -9.0637  -27.7149  -35.1712 C   0  0  0  0  0  0  0  0  0  0  0  0
  -11.1397  -26.2390  -36.4706 C   0  0  0  0  0  0  0  0  0  0  0  0
  -11.0935  -26.4907  -34.9626 C   0  0  0  0  0  0  0  0  0  0  0  0
  -14.0290  -24.1674  -37.4621 N   0  0  0  0  0  0  0  0  0  0  0  0
  -12.0476  -25.1690  -36.8146 N   0  0  0  0  0  0  0  0  0  0  0  0
  -13.8859  -26.5044  -37.2402 O   0  0  0  0  0  0  0  0  0  0  0  0
  -10.4508  -25.3617  -34.3542 O   0  0  0  0  0  0  0  0  0  0  0  0
  -10.3981  -27.7093  -34.6828 O   0  0  0  0  0  0  0  0  0  0  0  0
  -21.4009  -23.9305  -38.7782 H   0  0  0  0  0  0  0  0  0  0  0  0
  -20.8784  -25.6335  -37.0555 H   0  0  0  0  0  0  0  0  0  0  0  0
  -19.5989  -22.5994  -39.7970 H   0  0  0  0  0  0  0  0  0  0  0  0
  -18.5517  -26.0119  -36.3470 H   0  0  0  0  0  0  0  0  0  0  0  0
  -17.1713  -22.0394  -39.9799 H   0  0  0  0  0  0  0  0  0  0  0  0
  -14.8524  -22.4114  -39.2792 H   0  0  0  0  0  0  0  0  0  0  0  0
  -16.1361  -25.4560  -36.5283 H   0  0  0  0  0  0  0  0  0  0  0  0
   -9.9992  -24.5438  -32.5158 H   0  0  0  0  0  0  0  0  0  0  0  0
  -10.2636  -26.3152  -32.5351 H   0  0  0  0  0  0  0  0  0  0  0  0
  -11.6474  -25.2011  -32.6907 H   0  0  0  0  0  0  0  0  0  0  0  0
   -9.0719  -27.8619  -36.2540 H   0  0  0  0  0  0  0  0  0  0  0  0
   -8.5013  -28.5177  -34.6880 H   0  0  0  0  0  0  0  0  0  0  0  0
   -8.5963  -26.7548  -34.9396 H   0  0  0  0  0  0  0  0  0  0  0  0
  -10.1581  -25.9566  -36.8609 H   0  0  0  0  0  0  0  0  0  0  0  0
  -11.4886  -27.1310  -37.0005 H   0  0  0  0  0  0  0  0  0  0  0  0
  -12.1225  -26.5413  -34.5821 H   0  0  0  0  0  0  0  0  0  0  0  0
  -13.4421  -23.3330  -37.3588 H   0  0  0  0  0  0  0  0  0  0  0  0
  -11.7023  -24.2147  -36.7894 H   0  0  0  0  0  0  0  0  0  0  0  0
  1  2  1  0  0  0  0
  1  3  2  0  0  0  0
  2  4  2  0  0  0  0
  3  8  1  0  0  0  0
  4  9  1  0  0  0  0
  5  6  1  0  0  0  0
  5  8  2  0  0  0  0
  6 10  2  0  0  0  0
  7  9  2  0  0  0  0
  7 10  1  0  0  0  0
  8  9  1  0  0  0  0
 10 16  1  0  0  0  0
 11 16  1  0  0  0  0
 11 17  1  0  0  0  0
 11 18  2  0  0  0  0
 12 19  1  0  0  0  0
 13 20  1  0  0  0  0
 14 15  1  0  0  0  0
 14 17  1  0  0  0  0
 15 19  1  0  0  0  0
 15 20  1  0  0  0  0
  1 21  1  0  0  0  0
  2 22  1  0  0  0  0
  3 23  1  0  0  0  0
  4 24  1  0  0  0  0
  5 25  1  0  0  0  0
  6 26  1  0  0  0  0
  7 27  1  0  0  0  0
 12 28  1  0  0  0  0
 12 29  1  0  0  0  0
 12 30  1  0  0  0  0
 13 31  1  0  0  0  0
 13 32  1  0  0  0  0
 13 33  1  0  0  0  0
 14 34  1  0  0  0  0
 14 35  1  0  0  0  0
 15 36  1  0  0  0  0
 16 37  1  0  0  0  0
 17 38  1  0  0  0  0
M  END
> <Name>
IA_136.cdx

> <SourceTag>
IA_136

> <Gold.Version>
5.2

> <Gold.Id.Protein>
6HGV|6HGV_protein|mol2

> <Gold.Goldscore.Fitness>
56.7381

> <Gold.Goldscore.Internal.Vdw>
-2.8470

> <Gold.Goldscore.Internal.Torsion>
-4.4451

> <Gold.Goldscore.External.Vdw>
39.5932

> <Gold.Goldscore.Internal.HBond>
0.0000

> <Gold.Goldscore.External.HBond>
2.9826

> <Gold.Goldscore.Internal.Correction>
-6.6070

> <Gold.Goldscore.Hbonds>
donor molecule, donor type, donor heavy atom, donor atom, acceptor molecule, acceptor atom, score
      P1  H  1247  3847       L1    18  0.28
      L1  H    16    37       P1   854  0.38
      L1  H    17    38       P1   854  0.02

> <Gold.Goldscore.Internal.Vdw.Weighted>
-2.8470

> <Gold.Goldscore.Internal.Torsion.Weighted>
-4.4451

> <Gold.Goldscore.External.Vdw.Weighted>
54.4406

> <Gold.Goldscore.Internal.HBond.Weighted>
0.0000

> <Gold.Goldscore.External.HBond.Weighted>
2.9826

> <Gold.Goldscore.Internal.Correction.Weighted>
-6.6070

> <Gold.Protein.RotatedTorsions>
[ 3781 1176 1175 1172 ] final    3.33 input   60.00 | X-H torsion
[ 3847 1247 1246 1244 ] final -179.94 input   60.00 | X-H torsion
[ 4507 1931 1930 1928 ] final -103.91 input   60.00 | X-H torsion
[ 3677 1070 1069 1066 ] final  -45.03 input   60.00 | X-H torsion
[ 3525  925  924  922 ] final  -35.17 input   59.99 | X-H torsion
[ 4531 1957 1955 1953 ] final  166.27 input   60.00 | X-H torsion

> <Gold.Protein.ActiveResidues>
 PHE267  PRO268  MET310  ASP335  TRP336  MET339  TYR343  THR360  PRO361  ILE363 
 PRO371  SER374  ILE375  ASN378  PHE381  TYR383  GLN384  PHE387  LEU408  LEU417 
 MET419  LEU428  TYR466  MET469  ASN472  ASP496  VAL498  LEU499  MET503  HIS524 
 TRP525 

> <Gold.Protein.RotatedAtoms>
   -3.7719  -29.5188  -29.9382 H   0  0  0  0  0  0  0  0  0  0  0  0  # atno 3525 bound_to 925 
  -12.5094  -23.7490  -31.0332 H   0  0  0  0  0  0  0  0  0  0  0  0  # atno 3677 bound_to 1070
  -10.8116  -37.2623  -33.6231 H   0  0  0  0  0  0  0  0  0  0  0  0  # atno 3781 bound_to 1176
  -14.6696  -27.4419  -37.9513 H   0  0  0  0  0  0  0  0  0  0  0  0  # atno 3847 bound_to 1247
  -13.6018  -24.7148  -40.3907 H   0  0  0  0  0  0  0  0  0  0  0  0  # atno 4507 bound_to 1931
   -1.6682  -33.9081  -36.9394 H   0  0  0  0  0  0  0  0  0  0  0  0  # atno 4531 bound_to 1957
   -9.4984  -36.3174  -33.7987 LP  0  0  0  0  0  0  0  0  0  0  0  0  # atno 5205 bound_to 1176
   -9.7952  -37.0506  -32.3700 LP  0  0  0  0  0  0  0  0  0  0  0  0  # atno 5206 bound_to 1176
  -14.8306  -28.9312  -37.3157 LP  0  0  0  0  0  0  0  0  0  0  0  0  # atno 5215 bound_to 1247
  -16.0679  -27.8685  -37.2366 LP  0  0  0  0  0  0  0  0  0  0  0  0  # atno 5216 bound_to 1247
  -12.5049  -23.8212  -39.5868 LP  0  0  0  0  0  0  0  0  0  0  0  0  # atno 5217 bound_to 1931
  -13.0843  -25.1972  -38.9253 LP  0  0  0  0  0  0  0  0  0  0  0  0  # atno 5218 bound_to 1931
  -11.0991  -22.9793  -31.2912 LP  0  0  0  0  0  0  0  0  0  0  0  0  # atno 5224 bound_to 1070
  -12.2416  -22.3000  -30.3426 LP  0  0  0  0  0  0  0  0  0  0  0  0  # atno 5225 bound_to 1070

$$$$
IA_4|SeH_inactivess_minimized|sdf|126|dock2
  -GOLD-   4172121303D 1   1.00000     0.00000

 59 60  0  0  0  0  0  0  0  0  1 V2000
   -4.6945  -32.6131  -35.6044 C   0  0  0  0  0  0  0  0  0  0  0  0
   -3.4662  -33.1316  -33.9451 C   0  0  0  0  0  0  0  0  0  0  0  0
   -4.6365  -31.4833  -34.8229 C   0  0  0  0  0  0  0  0  0  0  0  0
   -8.5423  -28.4857  -34.2822 C   0  0  0  0  0  0  0  0  0  0  0  0
   -6.2072  -30.0323  -32.6594 C   0  0  0  0  0  0  0  0  0  0  0  0
  -14.8910  -25.6187  -37.0353 C   0  0  0  0  0  0  0  0  0  0  0  0
  -17.2852  -22.5781  -40.0797 C   0  0  0  0  0  0  0  0  0  0  0  0
  -16.9137  -22.4785  -38.6035 C   0  0  0  0  0  0  0  0  0  0  0  0
  -16.7604  -23.8651  -40.7086 C   0  0  0  0  0  0  0  0  0  0  0  0
  -17.3700  -23.7108  -37.8224 C   0  0  0  0  0  0  0  0  0  0  0  0
  -17.2166  -25.0997  -39.9311 C   0  0  0  0  0  0  0  0  0  0  0  0
  -16.8643  -25.0181  -38.4418 C   0  0  0  0  0  0  0  0  0  0  0  0
   -5.2481  -30.1107  -34.9698 C   0  0  0  0  0  0  0  0  0  0  0  0
   -8.9564  -27.0707  -34.6495 C   0  0  0  0  0  0  0  0  0  0  0  0
  -10.2669  -26.6243  -34.0023 C   0  0  0  0  0  0  0  0  0  0  0  0
  -10.8050  -25.2757  -34.4969 C   0  0  0  0  0  0  0  0  0  0  0  0
  -11.3659  -25.3281  -35.9220 C   0  0  0  0  0  0  0  0  0  0  0  0
  -12.6765  -26.1055  -36.0044 C   0  0  0  0  0  0  0  0  0  0  0  0
   -6.5287  -29.9344  -34.1435 C   0  0  2  0  0  0  0  0  0  0  0  0
   -3.9639  -33.6355  -35.0524 N   0  0  0  0  0  0  0  0  0  0  0  0
   -3.8462  -31.8308  -33.7637 N   0  0  0  0  0  0  0  0  0  0  0  0
   -7.1799  -28.6831  -34.4536 N   0  0  0  0  0  0  0  0  0  0  0  0
  -15.4418  -25.1752  -38.2347 N   0  0  0  0  0  0  0  0  0  0  0  0
  -13.4975  -25.6798  -37.1040 N   0  0  0  0  0  0  0  0  0  0  0  0
   -9.3291  -29.3284  -33.8590 O   0  0  0  0  0  0  0  0  0  0  0  0
   -6.7932  -30.7951  -31.8983 O   0  0  0  0  0  0  0  0  0  0  0  0
  -15.5454  -25.9204  -36.0381 O   0  0  0  0  0  0  0  0  0  0  0  0
   -5.2126  -29.2150  -32.2377 O   0  0  0  0  0  0  0  0  0  0  0  0
   -5.2245  -32.7448  -36.5370 H   0  0  0  0  0  0  0  0  0  0  0  0
   -2.8314  -33.6481  -33.2395 H   0  0  0  0  0  0  0  0  0  0  0  0
  -18.3766  -22.5409  -40.1836 H   0  0  0  0  0  0  0  0  0  0  0  0
  -16.8841  -21.7132  -40.6201 H   0  0  0  0  0  0  0  0  0  0  0  0
  -15.8275  -22.3604  -38.5065 H   0  0  0  0  0  0  0  0  0  0  0  0
  -17.3693  -21.5809  -38.1701 H   0  0  0  0  0  0  0  0  0  0  0  0
  -17.1090  -23.9357  -41.7452 H   0  0  0  0  0  0  0  0  0  0  0  0
  -15.6646  -23.8345  -40.7445 H   0  0  0  0  0  0  0  0  0  0  0  0
  -17.0349  -23.6254  -36.7817 H   0  0  0  0  0  0  0  0  0  0  0  0
  -18.4672  -23.7284  -37.8016 H   0  0  0  0  0  0  0  0  0  0  0  0
  -18.3048  -25.1987  -40.0340 H   0  0  0  0  0  0  0  0  0  0  0  0
  -16.7730  -25.9962  -40.3808 H   0  0  0  0  0  0  0  0  0  0  0  0
  -17.3291  -25.8620  -37.9198 H   0  0  0  0  0  0  0  0  0  0  0  0
   -5.4535  -29.9422  -36.0354 H   0  0  0  0  0  0  0  0  0  0  0  0
   -4.5108  -29.3450  -34.6930 H   0  0  0  0  0  0  0  0  0  0  0  0
   -8.1523  -26.4079  -34.3057 H   0  0  0  0  0  0  0  0  0  0  0  0
   -9.0062  -26.9714  -35.7387 H   0  0  0  0  0  0  0  0  0  0  0  0
  -11.0363  -27.3878  -34.1717 H   0  0  0  0  0  0  0  0  0  0  0  0
  -10.1195  -26.5689  -32.9165 H   0  0  0  0  0  0  0  0  0  0  0  0
   -9.9805  -24.5524  -34.4654 H   0  0  0  0  0  0  0  0  0  0  0  0
  -11.5709  -24.9034  -33.8076 H   0  0  0  0  0  0  0  0  0  0  0  0
  -11.5438  -24.3061  -36.2772 H   0  0  0  0  0  0  0  0  0  0  0  0
  -10.6340  -25.7857  -36.5972 H   0  0  0  0  0  0  0  0  0  0  0  0
  -12.4960  -27.1793  -36.1161 H   0  0  0  0  0  0  0  0  0  0  0  0
  -13.2603  -25.9519  -35.0912 H   0  0  0  0  0  0  0  0  0  0  0  0
   -7.2585  -30.7217  -34.3645 H   0  0  0  0  0  0  0  0  0  0  0  0
   -3.5877  -31.2371  -32.9864 H   0  0  0  0  0  0  0  0  0  0  0  0
   -6.6121  -27.9373  -34.8453 H   0  0  0  0  0  0  0  0  0  0  0  0
  -14.8145  -24.9514  -39.0008 H   0  0  0  0  0  0  0  0  0  0  0  0
  -13.0492  -25.4532  -37.9900 H   0  0  0  0  0  0  0  0  0  0  0  0
   -4.9877  -29.2965  -31.2870 H   0  0  0  0  0  0  0  0  0  0  0  0
  1  3  2  0  0  0  0
  1 20  1  0  0  0  0
  2 20  2  0  0  0  0
  2 21  1  0  0  0  0
  3 13  1  0  0  0  0
  3 21  1  0  0  0  0
  4 14  1  0  0  0  0
  4 22  1  0  0  0  0
  4 25  2  0  0  0  0
  5 19  1  0  0  0  0
  5 26  2  0  0  0  0
  5 28  1  0  0  0  0
  6 23  1  0  0  0  0
  6 24  1  0  0  0  0
  6 27  2  0  0  0  0
  7  8  1  0  0  0  0
  7  9  1  0  0  0  0
  8 10  1  0  0  0  0
  9 11  1  0  0  0  0
 10 12  1  0  0  0  0
 11 12  1  0  0  0  0
 12 23  1  0  0  0  0
 13 19  1  0  0  0  0
 14 15  1  0  0  0  0
 15 16  1  0  0  0  0
 16 17  1  0  0  0  0
 17 18  1  0  0  0  0
 18 24  1  0  0  0  0
 19 22  1  0  0  0  0
  1 29  1  0  0  0  0
  2 30  1  0  0  0  0
  7 31  1  0  0  0  0
  7 32  1  0  0  0  0
  8 33  1  0  0  0  0
  8 34  1  0  0  0  0
  9 35  1  0  0  0  0
  9 36  1  0  0  0  0
 10 37  1  0  0  0  0
 10 38  1  0  0  0  0
 11 39  1  0  0  0  0
 11 40  1  0  0  0  0
 12 41  1  0  0  0  0
 13 42  1  0  0  0  0
 13 43  1  0  0  0  0
 14 44  1  0  0  0  0
 14 45  1  0  0  0  0
 15 46  1  0  0  0  0
 15 47  1  0  0  0  0
 16 48  1  0  0  0  0
 16 49  1  0  0  0  0
 17 50  1  0  0  0  0
 17 51  1  0  0  0  0
 18 52  1  0  0  0  0
 18 53  1  0  0  0  0
 19 54  1  0  0  0  0
 21 55  1  0  0  0  0
 22 56  1  0  0  0  0
 23 57  1  0  0  0  0
 24 58  1  0  0  0  0
 28 59  1  0  0  0  0
M  END
> <Name>
IA_4

> <SourceTag>
IA_4

> <Gold.Version>
5.2

> <Gold.Id.Protein>
6HGV|6HGV_protein|mol2

> <Gold.Goldscore.Fitness>
76.3971

> <Gold.Goldscore.Internal.Vdw>
-3.1726

> <Gold.Goldscore.Internal.Torsion>
-5.1744

> <Gold.Goldscore.External.Vdw>
57.5353

> <Gold.Goldscore.Internal.HBond>
0.0000

> <Gold.Goldscore.External.HBond>
2.3140

> <Gold.Goldscore.Internal.Correction>
-3.3191

> <Gold.Goldscore.Hbonds>
donor molecule, donor type, donor heavy atom, donor atom, acceptor molecule, acceptor atom, score
      L1  H    23    57       P1  1931  0.38
      L1  H    24    58       P1  1931  0.77

> <Gold.Goldscore.Internal.Vdw.Weighted>
-3.1726

> <Gold.Goldscore.Internal.Torsion.Weighted>
-5.1744

> <Gold.Goldscore.External.Vdw.Weighted>
79.1111

> <Gold.Goldscore.Internal.HBond.Weighted>
0.0000

> <Gold.Goldscore.External.HBond.Weighted>
2.3140

> <Gold.Goldscore.Internal.Correction.Weighted>
-3.3191

> <Gold.Protein.RotatedTorsions>
[ 3781 1176 1175 1172 ] final   -5.73 input   60.00 | X-H torsion
[ 3847 1247 1246 1244 ] final    6.13 input   60.00 | X-H torsion
[ 4507 1931 1930 1928 ] final  165.98 input   60.00 | X-H torsion
[ 3677 1070 1069 1066 ] final  -97.54 input   60.00 | X-H torsion
[ 3525  925  924  922 ] final   80.23 input   59.99 | X-H torsion
[ 4531 1957 1955 1953 ] final  -58.39 input   60.00 | X-H torsion

> <Gold.Protein.ActiveResidues>
 PHE267  PRO268  MET310  ASP335  TRP336  MET339  TYR343  THR360  PRO361  ILE363 
 PRO371  SER374  ILE375  ASN378  PHE381  TYR383  GLN384  PHE387  LEU408  LEU417 
 MET419  LEU428  TYR466  MET469  ASN472  ASP496  VAL498  LEU499  MET503  HIS524 
 TRP525 

> <Gold.Protein.RotatedAtoms>
   -2.5172  -29.9888  -30.7808 H   0  0  0  0  0  0  0  0  0  0  0  0  # atno 3525 bound_to 925 
  -11.7709  -23.7695  -31.4079 H   0  0  0  0  0  0  0  0  0  0  0  0  # atno 3677 bound_to 1070
  -10.7751  -37.1913  -33.7477 H   0  0  0  0  0  0  0  0  0  0  0  0  # atno 3781 bound_to 1176
  -15.6298  -28.7781  -37.0633 H   0  0  0  0  0  0  0  0  0  0  0  0  # atno 3847 bound_to 1247
  -12.7306  -23.7898  -40.0146 H   0  0  0  0  0  0  0  0  0  0  0  0  # atno 4507 bound_to 1931
   -2.0049  -32.2115  -36.8460 H   0  0  0  0  0  0  0  0  0  0  0  0  # atno 4531 bound_to 1957
   -9.4121  -36.3051  -33.6779 LP  0  0  0  0  0  0  0  0  0  0  0  0  # atno 5205 bound_to 1176
   -9.9183  -37.1344  -32.3654 LP  0  0  0  0  0  0  0  0  0  0  0  0  # atno 5206 bound_to 1176
  -15.6288  -27.2575  -37.6427 LP  0  0  0  0  0  0  0  0  0  0  0  0  # atno 5215 bound_to 1247
  -14.3027  -28.1966  -37.8040 LP  0  0  0  0  0  0  0  0  0  0  0  0  # atno 5216 bound_to 1247
  -12.7646  -24.8578  -38.7873 LP  0  0  0  0  0  0  0  0  0  0  0  0  # atno 5217 bound_to 1931
  -13.7020  -25.0922  -40.1037 LP  0  0  0  0  0  0  0  0  0  0  0  0  # atno 5218 bound_to 1931
  -11.3079  -22.3259  -30.8164 LP  0  0  0  0  0  0  0  0  0  0  0  0  # atno 5224 bound_to 1070
  -12.7765  -22.9328  -30.4400 LP  0  0  0  0  0  0  0  0  0  0  0  0  # atno 5225 bound_to 1070

$$$$
IA_148.cdx|SeH_inactivess_minimized|sdf|49|dock5
  -GOLD-   4172119403D 1   1.00000     0.00000

 44 46  0  0  0  0  0  0  0  0  1 V2000
  -17.8286  -22.6614  -40.1250 C   0  0  0  0  0  0  0  0  0  0  0  0
   -8.4147  -32.0171  -35.1526 C   0  0  0  0  0  0  0  0  0  0  0  0
   -8.9175  -30.8389  -34.6009 C   0  0  0  0  0  0  0  0  0  0  0  0
  -18.5403  -23.7501  -39.6214 C   0  0  0  0  0  0  0  0  0  0  0  0
  -16.5918  -22.3226  -39.5764 C   0  0  0  0  0  0  0  0  0  0  0  0
   -6.2025  -31.0474  -35.2079 C   0  0  0  0  0  0  0  0  0  0  0  0
  -11.7923  -26.9304  -34.4339 C   0  0  0  0  0  0  0  0  0  0  0  0
   -9.5998  -27.9288  -35.8407 C   0  0  0  0  0  0  0  0  0  0  0  0
  -16.7783  -24.1613  -38.0203 C   0  0  0  0  0  0  0  0  0  0  0  0
   -7.0571  -32.1215  -35.4561 C   0  0  0  0  0  0  0  0  0  0  0  0
  -11.7545  -26.8358  -35.8251 C   0  0  0  0  0  0  0  0  0  0  0  0
   -8.0628  -29.7648  -34.3528 C   0  0  0  0  0  0  0  0  0  0  0  0
   -9.6376  -28.0232  -34.4496 C   0  0  0  0  0  0  0  0  0  0  0  0
  -18.0152  -24.5000  -38.5690 C   0  0  0  0  0  0  0  0  0  0  0  0
  -16.0666  -23.0725  -38.5240 C   0  0  0  0  0  0  0  0  0  0  0  0
  -10.6583  -27.3351  -36.5285 C   0  0  0  0  0  0  0  0  0  0  0  0
   -6.7053  -29.8690  -34.6562 C   0  0  0  0  0  0  0  0  0  0  0  0
  -10.7338  -27.5241  -33.7462 C   0  0  0  0  0  0  0  0  0  0  0  0
  -16.2305  -24.9435  -36.9229 C   0  0  0  0  0  0  0  0  0  0  0  0
  -14.1540  -26.0925  -36.0949 C   0  0  0  0  0  0  0  0  0  0  0  0
   -6.5203  -33.3816  -36.0462 C   0  0  0  0  0  0  0  0  0  0  0  0
  -12.8288  -26.2334  -36.5204 N   0  0  0  0  0  0  0  0  0  0  0  0
  -14.8901  -25.3559  -37.0455 N   0  0  0  0  0  0  0  0  0  0  0  0
  -16.9253  -25.1984  -35.9243 O   0  0  0  0  0  0  0  0  0  0  0  0
  -14.6416  -26.5324  -35.0568 O   0  0  0  0  0  0  0  0  0  0  0  0
   -8.5896  -28.6089  -33.8039 O   0  0  0  0  0  0  0  0  0  0  0  0
  -18.7075  -25.5445  -38.0925 F   0  0  0  0  0  0  0  0  0  0  0  0
  -14.8770  -22.7383  -38.0040 F   0  0  0  0  0  0  0  0  0  0  0  0
  -10.6109  -27.2492  -37.8656 F   0  0  0  0  0  0  0  0  0  0  0  0
   -6.9720  -33.6294  -37.3113 F   0  0  0  0  0  0  0  0  0  0  0  0
   -5.1580  -33.4023  -36.1443 F   0  0  0  0  0  0  0  0  0  0  0  0
   -6.8516  -34.4861  -35.3163 F   0  0  0  0  0  0  0  0  0  0  0  0
   -5.6259  -28.5563  -34.3590 Cl  0  0  0  0  0  0  0  0  0  0  0  0
  -10.8059  -27.6272  -32.0257 Cl  0  0  0  0  0  0  0  0  0  0  0  0
  -18.2373  -22.0776  -40.9447 H   0  0  0  0  0  0  0  0  0  0  0  0
   -9.0879  -32.8488  -35.3430 H   0  0  0  0  0  0  0  0  0  0  0  0
   -9.9762  -30.7650  -34.3671 H   0  0  0  0  0  0  0  0  0  0  0  0
  -19.5035  -24.0139  -40.0484 H   0  0  0  0  0  0  0  0  0  0  0  0
  -16.0374  -21.4748  -39.9682 H   0  0  0  0  0  0  0  0  0  0  0  0
   -5.1450  -31.1355  -35.4470 H   0  0  0  0  0  0  0  0  0  0  0  0
  -12.6489  -26.5389  -33.8894 H   0  0  0  0  0  0  0  0  0  0  0  0
   -8.7492  -28.3155  -36.3954 H   0  0  0  0  0  0  0  0  0  0  0  0
  -12.6045  -25.8598  -37.4392 H   0  0  0  0  0  0  0  0  0  0  0  0
  -14.4069  -25.0981  -37.9007 H   0  0  0  0  0  0  0  0  0  0  0  0
  1  4  2  0  0  0  0
  1  5  1  0  0  0  0
  2  3  1  0  0  0  0
  2 10  2  0  0  0  0
  3 12  2  0  0  0  0
  4 14  1  0  0  0  0
  5 15  2  0  0  0  0
  6 10  1  0  0  0  0
  6 17  2  0  0  0  0
  7 11  2  0  0  0  0
  7 18  1  0  0  0  0
  8 13  1  0  0  0  0
  8 16  2  0  0  0  0
  9 14  2  0  0  0  0
  9 15  1  0  0  0  0
  9 19  1  0  0  0  0
 10 21  1  0  0  0  0
 11 16  1  0  0  0  0
 11 22  1  0  0  0  0
 12 17  1  0  0  0  0
 12 26  1  0  0  0  0
 13 18  2  0  0  0  0
 13 26  1  0  0  0  0
 14 27  1  0  0  0  0
 15 28  1  0  0  0  0
 16 29  1  0  0  0  0
 17 33  1  0  0  0  0
 18 34  1  0  0  0  0
 19 23  1  0  0  0  0
 19 24  2  0  0  0  0
 20 22  1  0  0  0  0
 20 23  1  0  0  0  0
 20 25  2  0  0  0  0
 21 30  1  0  0  0  0
 21 31  1  0  0  0  0
 21 32  1  0  0  0  0
  1 35  1  0  0  0  0
  2 36  1  0  0  0  0
  3 37  1  0  0  0  0
  4 38  1  0  0  0  0
  5 39  1  0  0  0  0
  6 40  1  0  0  0  0
  7 41  1  0  0  0  0
  8 42  1  0  0  0  0
 22 43  1  0  0  0  0
 23 44  1  0  0  0  0
M  END
> <Name>
IA_148.cdx

> <SourceTag>
IA_148

> <Gold.Version>
5.2

> <Gold.Id.Protein>
6HGV|6HGV_protein|mol2

> <Gold.Goldscore.Fitness>
61.3174

> <Gold.Goldscore.Internal.Vdw>
-4.8303

> <Gold.Goldscore.Internal.Torsion>
-8.0164

> <Gold.Goldscore.External.Vdw>
43.5650

> <Gold.Goldscore.Internal.HBond>
0.0000

> <Gold.Goldscore.External.HBond>
2.2704

> <Gold.Goldscore.Internal.Correction>
-11.9918

> <Gold.Goldscore.Hbonds>
donor molecule, donor type, donor heavy atom, donor atom, acceptor molecule, acceptor atom, score
      L1  H    22    43       P1  1931  0.45
      L1  H    23    44       P1  1931  0.68

> <Gold.Goldscore.Internal.Vdw.Weighted>
-4.8303

> <Gold.Goldscore.Internal.Torsion.Weighted>
-8.0164

> <Gold.Goldscore.External.Vdw.Weighted>
59.9019

> <Gold.Goldscore.Internal.HBond.Weighted>
0.0000

> <Gold.Goldscore.External.HBond.Weighted>
2.2704

> <Gold.Goldscore.Internal.Correction.Weighted>
-11.9918

> <Gold.Protein.RotatedTorsions>
[ 3781 1176 1175 1172 ] final  -87.75 input   60.00 | X-H torsion
[ 3847 1247 1246 1244 ] final  -54.56 input   60.00 | X-H torsion
[ 4507 1931 1930 1928 ] final  -98.77 input   60.00 | X-H torsion
[ 3677 1070 1069 1066 ] final -103.03 input   60.00 | X-H torsion
[ 3525  925  924  922 ] final   -2.51 input   59.99 | X-H torsion
[ 4531 1957 1955 1953 ] final   -6.67 input   60.00 | X-H torsion

> <Gold.Protein.ActiveResidues>
 PHE267  PRO268  MET310  ASP335  TRP336  MET339  TYR343  THR360  PRO361  ILE363 
 PRO371  SER374  ILE375  ASN378  PHE381  TYR383  GLN384  PHE387  LEU408  LEU417 
 MET419  LEU428  TYR466  MET469  ASN472  ASP496  VAL498  LEU499  MET503  HIS524 
 TRP525 

> <Gold.Protein.RotatedAtoms>
   -3.6193  -29.5393  -30.4418 H   0  0  0  0  0  0  0  0  0  0  0  0  # atno 3525 bound_to 925 
  -11.6912  -23.7328  -31.4262 H   0  0  0  0  0  0  0  0  0  0  0  0  # atno 3677 bound_to 1070
   -9.8513  -36.4515  -34.0774 H   0  0  0  0  0  0  0  0  0  0  0  0  # atno 3781 bound_to 1176
  -16.0676  -27.9521  -37.2075 H   0  0  0  0  0  0  0  0  0  0  0  0  # atno 3847 bound_to 1247
  -13.6294  -24.7849  -40.3537 H   0  0  0  0  0  0  0  0  0  0  0  0  # atno 4507 bound_to 1931
   -2.7802  -32.4247  -36.7023 H   0  0  0  0  0  0  0  0  0  0  0  0  # atno 4531 bound_to 1957
   -9.4569  -36.7649  -32.5301 LP  0  0  0  0  0  0  0  0  0  0  0  0  # atno 5205 bound_to 1176
  -10.8038  -37.4197  -33.1811 LP  0  0  0  0  0  0  0  0  0  0  0  0  # atno 5206 bound_to 1176
  -14.7345  -27.3819  -37.9461 LP  0  0  0  0  0  0  0  0  0  0  0  0  # atno 5215 bound_to 1247
  -14.7561  -28.9041  -37.3553 LP  0  0  0  0  0  0  0  0  0  0  0  0  # atno 5216 bound_to 1247
  -12.5342  -23.7993  -39.6631 LP  0  0  0  0  0  0  0  0  0  0  0  0  # atno 5217 bound_to 1931
  -13.0272  -25.1485  -38.8864 LP  0  0  0  0  0  0  0  0  0  0  0  0  # atno 5218 bound_to 1931
  -11.3664  -22.2826  -30.7630 LP  0  0  0  0  0  0  0  0  0  0  0  0  # atno 5224 bound_to 1070
  -12.7982  -23.0130  -30.4750 LP  0  0  0  0  0  0  0  0  0  0  0  0  # atno 5225 bound_to 1070

$$$$
IA_210.cdx|SeH_inactivess_minimized|sdf|108|dock6
  -GOLD-   4172120563D 1   1.00000     0.00000

 41 42  0  0  0  0  0  0  0  0  1 V2000
  -17.1144  -25.7707  -36.8655 C   0  0  0  0  0  0  0  0  0  0  0  0
  -16.3038  -25.8203  -35.7314 C   0  0  0  0  0  0  0  0  0  0  0  0
  -16.5960  -25.3030  -38.0732 C   0  0  0  0  0  0  0  0  0  0  0  0
  -14.9751  -25.4024  -35.8048 C   0  0  0  0  0  0  0  0  0  0  0  0
  -15.2673  -24.8851  -38.1467 C   0  0  0  0  0  0  0  0  0  0  0  0
  -11.3531  -24.6388  -35.5057 C   0  0  0  0  0  0  0  0  0  0  0  0
  -12.1000  -26.6247  -36.6613 C   0  0  0  0  0  0  0  0  0  0  0  0
  -10.3974  -25.3938  -34.8260 C   0  0  0  0  0  0  0  0  0  0  0  0
  -11.1442  -27.3798  -35.9814 C   0  0  0  0  0  0  0  0  0  0  0  0
  -14.4568  -24.9348  -37.0125 C   0  0  0  0  0  0  0  0  0  0  0  0
  -12.2044  -25.2543  -36.4234 C   0  0  0  0  0  0  0  0  0  0  0  0
  -10.2929  -26.7642  -35.0638 C   0  0  0  0  0  0  0  0  0  0  0  0
   -5.8220  -30.7736  -34.9464 C   0  0  0  0  0  0  0  0  0  0  0  0
   -4.5747  -33.3477  -34.2749 C   0  0  0  0  0  0  0  0  0  0  0  0
   -7.6623  -29.2073  -34.3462 C   0  0  0  0  0  0  0  0  0  0  0  0
   -4.4143  -32.5780  -35.5686 C   0  0  0  0  0  0  0  0  0  0  0  0
   -8.9323  -28.7142  -35.0153 C   0  0  0  0  0  0  0  0  0  0  0  0
   -7.1088  -30.3043  -35.1060 N   0  0  0  0  0  0  0  0  0  0  0  0
   -4.9920  -30.3345  -34.1571 O   0  0  0  0  0  0  0  0  0  0  0  0
  -13.1382  -24.5182  -37.0857 O   0  0  0  0  0  0  0  0  0  0  0  0
   -9.3540  -27.5059  -34.3957 O   0  0  0  0  0  0  0  0  0  0  0  0
   -5.6011  -31.8126  -35.8061 O   0  0  0  0  0  0  0  0  0  0  0  0
  -18.1488  -26.0965  -36.8087 H   0  0  0  0  0  0  0  0  0  0  0  0
  -16.7073  -26.1843  -34.7908 H   0  0  0  0  0  0  0  0  0  0  0  0
  -17.2278  -25.2648  -38.9560 H   0  0  0  0  0  0  0  0  0  0  0  0
  -14.3494  -25.4422  -34.9174 H   0  0  0  0  0  0  0  0  0  0  0  0
  -14.8695  -24.5201  -39.0896 H   0  0  0  0  0  0  0  0  0  0  0  0
  -11.4314  -23.5721  -35.3146 H   0  0  0  0  0  0  0  0  0  0  0  0
  -12.7612  -27.1096  -37.3744 H   0  0  0  0  0  0  0  0  0  0  0  0
   -9.7360  -24.9088  -34.1132 H   0  0  0  0  0  0  0  0  0  0  0  0
  -11.0675  -28.4469  -36.1706 H   0  0  0  0  0  0  0  0  0  0  0  0
   -4.7793  -32.6706  -33.4409 H   0  0  0  0  0  0  0  0  0  0  0  0
   -5.3944  -34.0692  -34.3540 H   0  0  0  0  0  0  0  0  0  0  0  0
   -3.6679  -33.9195  -34.0513 H   0  0  0  0  0  0  0  0  0  0  0  0
   -6.9097  -28.4144  -34.2905 H   0  0  0  0  0  0  0  0  0  0  0  0
   -7.8793  -29.5671  -33.3359 H   0  0  0  0  0  0  0  0  0  0  0  0
   -4.2638  -33.2644  -36.4073 H   0  0  0  0  0  0  0  0  0  0  0  0
   -3.5614  -31.8958  -35.5065 H   0  0  0  0  0  0  0  0  0  0  0  0
   -9.7309  -29.4527  -34.8940 H   0  0  0  0  0  0  0  0  0  0  0  0
   -8.7782  -28.5272  -36.0830 H   0  0  0  0  0  0  0  0  0  0  0  0
   -7.7008  -30.7555  -35.7966 H   0  0  0  0  0  0  0  0  0  0  0  0
  1  2  2  0  0  0  0
  1  3  1  0  0  0  0
  2  4  1  0  0  0  0
  3  5  2  0  0  0  0
  4 10  2  0  0  0  0
  5 10  1  0  0  0  0
  6  8  1  0  0  0  0
  6 11  2  0  0  0  0
  7  9  2  0  0  0  0
  7 11  1  0  0  0  0
  8 12  2  0  0  0  0
  9 12  1  0  0  0  0
 10 20  1  0  0  0  0
 11 20  1  0  0  0  0
 12 21  1  0  0  0  0
 13 18  1  0  0  0  0
 13 19  2  0  0  0  0
 13 22  1  0  0  0  0
 14 16  1  0  0  0  0
 15 17  1  0  0  0  0
 15 18  1  0  0  0  0
 16 22  1  0  0  0  0
 17 21  1  0  0  0  0
  1 23  1  0  0  0  0
  2 24  1  0  0  0  0
  3 25  1  0  0  0  0
  4 26  1  0  0  0  0
  5 27  1  0  0  0  0
  6 28  1  0  0  0  0
  7 29  1  0  0  0  0
  8 30  1  0  0  0  0
  9 31  1  0  0  0  0
 14 32  1  0  0  0  0
 14 33  1  0  0  0  0
 14 34  1  0  0  0  0
 15 35  1  0  0  0  0
 15 36  1  0  0  0  0
 16 37  1  0  0  0  0
 16 38  1  0  0  0  0
 17 39  1  0  0  0  0
 17 40  1  0  0  0  0
 18 41  1  0  0  0  0
M  END
> <Name>
IA_210.cdx

> <SourceTag>
IA_210

> <Gold.Version>
5.2

> <Gold.Id.Protein>
6HGV|6HGV_protein|mol2

> <Gold.Goldscore.Fitness>
61.6727

> <Gold.Goldscore.Internal.Vdw>
-5.9748

> <Gold.Goldscore.Internal.Torsion>
-5.0950

> <Gold.Goldscore.External.Vdw>
45.3782

> <Gold.Goldscore.Internal.HBond>
0.0000

> <Gold.Goldscore.External.HBond>
1.4191

> <Gold.Goldscore.Internal.Correction>
-8.9284

> <Gold.Goldscore.Hbonds>
donor molecule, donor type, donor heavy atom, donor atom, acceptor molecule, acceptor atom, score
      P1  H  1931  4507       L1    20  0.71

> <Gold.Goldscore.Internal.Vdw.Weighted>
-5.9748

> <Gold.Goldscore.Internal.Torsion.Weighted>
-5.0950

> <Gold.Goldscore.External.Vdw.Weighted>
62.3950

> <Gold.Goldscore.Internal.HBond.Weighted>
0.0000

> <Gold.Goldscore.External.HBond.Weighted>
1.4191

> <Gold.Goldscore.Internal.Correction.Weighted>
-8.9284

> <Gold.Protein.RotatedTorsions>
[ 3781 1176 1175 1172 ] final  -90.15 input   60.00 | X-H torsion
[ 3847 1247 1246 1244 ] final  -11.37 input   60.00 | X-H torsion
[ 4507 1931 1930 1928 ] final   49.71 input   60.00 | X-H torsion
[ 3677 1070 1069 1066 ] final -100.57 input   60.00 | X-H torsion
[ 3525  925  924  922 ] final   25.09 input   59.99 | X-H torsion
[ 4531 1957 1955 1953 ] final  132.79 input   60.00 | X-H torsion

> <Gold.Protein.ActiveResidues>
 PHE267  PRO268  MET310  ASP335  TRP336  MET339  TYR343  THR360  PRO361  ILE363 
 PRO371  SER374  ILE375  ASN378  PHE381  TYR383  GLN384  PHE387  LEU408  LEU417 
 MET419  LEU428  TYR466  MET469  ASN472  ASP496  VAL498  LEU499  MET503  HIS524 
 TRP525 

> <Gold.Protein.RotatedAtoms>
   -3.3122  -29.6452  -30.7483 H   0  0  0  0  0  0  0  0  0  0  0  0  # atno 3525 bound_to 925 
  -11.7268  -23.7501  -31.4186 H   0  0  0  0  0  0  0  0  0  0  0  0  # atno 3677 bound_to 1070
   -9.8191  -36.4362  -34.0611 H   0  0  0  0  0  0  0  0  0  0  0  0  # atno 3781 bound_to 1176
  -15.8380  -28.5838  -37.0559 H   0  0  0  0  0  0  0  0  0  0  0  0  # atno 3847 bound_to 1247
  -12.7293  -24.8076  -38.7928 H   0  0  0  0  0  0  0  0  0  0  0  0  # atno 4507 bound_to 1931
   -2.1750  -34.0674  -36.8458 H   0  0  0  0  0  0  0  0  0  0  0  0  # atno 4531 bound_to 1957
   -9.4804  -36.7885  -32.5089 LP  0  0  0  0  0  0  0  0  0  0  0  0  # atno 5205 bound_to 1176
  -10.8127  -37.4115  -33.2187 LP  0  0  0  0  0  0  0  0  0  0  0  0  # atno 5206 bound_to 1176
  -15.3776  -27.1938  -37.7657 LP  0  0  0  0  0  0  0  0  0  0  0  0  # atno 5215 bound_to 1247
  -14.3442  -28.4559  -37.6884 LP  0  0  0  0  0  0  0  0  0  0  0  0  # atno 5216 bound_to 1247
  -13.7020  -25.1314  -40.0566 LP  0  0  0  0  0  0  0  0  0  0  0  0  # atno 5217 bound_to 1931
  -12.7658  -23.7934  -40.0648 LP  0  0  0  0  0  0  0  0  0  0  0  0  # atno 5218 bound_to 1931
  -11.3394  -22.3013  -30.7869 LP  0  0  0  0  0  0  0  0  0  0  0  0  # atno 5224 bound_to 1070
  -12.7894  -22.9769  -30.4588 LP  0  0  0  0  0  0  0  0  0  0  0  0  # atno 5225 bound_to 1070

$$$$
IA_77.cdx|SeH_inactivess_minimized|sdf|154|dock4
  -GOLD-   4172122103D 1   1.00000     0.00000

 32 31  0  0  0  0  0  0  0  0  1 V2000
  -13.5202  -25.7444  -37.1322 C   0  0  0  0  0  0  0  0  0  0  0  0
  -10.1320  -25.2025  -33.6960 C   0  0  0  0  0  0  0  0  0  0  0  0
  -17.1781  -23.7784  -41.1180 C   0  0  0  0  0  0  0  0  0  0  0  0
  -11.2438  -26.2341  -33.8072 C   0  0  0  0  0  0  0  0  0  0  0  0
  -17.1767  -24.4636  -39.7602 C   0  0  0  0  0  0  0  0  0  0  0  0
  -11.1277  -27.0433  -35.1011 C   0  0  0  0  0  0  0  0  0  0  0  0
  -15.8411  -24.2703  -39.0383 C   0  0  0  0  0  0  0  0  0  0  0  0
  -11.1893  -26.1669  -36.3477 C   0  0  0  0  0  0  0  0  0  0  0  0
  -15.8148  -24.9362  -37.6666 C   0  0  0  0  0  0  0  0  0  0  0  0
  -12.3874  -25.3759  -36.4029 N   0  0  0  0  0  0  0  0  0  0  0  0
  -14.5352  -24.7985  -37.0117 N   0  0  0  0  0  0  0  0  0  0  0  0
  -13.6092  -26.7758  -37.7968 O   0  0  0  0  0  0  0  0  0  0  0  0
  -10.3076  -24.3617  -34.3748 H   0  0  0  0  0  0  0  0  0  0  0  0
  -10.0799  -24.8101  -32.6755 H   0  0  0  0  0  0  0  0  0  0  0  0
   -9.1606  -25.6443  -33.9397 H   0  0  0  0  0  0  0  0  0  0  0  0
  -16.3922  -24.1845  -41.7629 H   0  0  0  0  0  0  0  0  0  0  0  0
  -18.1400  -23.9300  -41.6178 H   0  0  0  0  0  0  0  0  0  0  0  0
  -17.0154  -22.7009  -41.0141 H   0  0  0  0  0  0  0  0  0  0  0  0
  -11.1975  -26.9064  -32.9427 H   0  0  0  0  0  0  0  0  0  0  0  0
  -12.2104  -25.7194  -33.7674 H   0  0  0  0  0  0  0  0  0  0  0  0
  -17.9912  -24.0550  -39.1511 H   0  0  0  0  0  0  0  0  0  0  0  0
  -17.3803  -25.5310  -39.9015 H   0  0  0  0  0  0  0  0  0  0  0  0
  -10.1909  -27.6141  -35.0947 H   0  0  0  0  0  0  0  0  0  0  0  0
  -11.9482  -27.7697  -35.1448 H   0  0  0  0  0  0  0  0  0  0  0  0
  -15.0274  -24.6660  -39.6586 H   0  0  0  0  0  0  0  0  0  0  0  0
  -15.6555  -23.1972  -38.9083 H   0  0  0  0  0  0  0  0  0  0  0  0
  -11.1428  -26.7697  -37.2600 H   0  0  0  0  0  0  0  0  0  0  0  0
  -10.3455  -25.4697  -36.3566 H   0  0  0  0  0  0  0  0  0  0  0  0
  -16.0413  -26.0046  -37.7390 H   0  0  0  0  0  0  0  0  0  0  0  0
  -16.5601  -24.4736  -37.0118 H   0  0  0  0  0  0  0  0  0  0  0  0
  -12.4120  -24.5001  -35.8827 H   0  0  0  0  0  0  0  0  0  0  0  0
  -14.3889  -23.9992  -36.4033 H   0  0  0  0  0  0  0  0  0  0  0  0
  1 10  1  0  0  0  0
  1 11  1  0  0  0  0
  1 12  2  0  0  0  0
  2  4  1  0  0  0  0
  3  5  1  0  0  0  0
  4  6  1  0  0  0  0
  5  7  1  0  0  0  0
  6  8  1  0  0  0  0
  7  9  1  0  0  0  0
  8 10  1  0  0  0  0
  9 11  1  0  0  0  0
  2 13  1  0  0  0  0
  2 14  1  0  0  0  0
  2 15  1  0  0  0  0
  3 16  1  0  0  0  0
  3 17  1  0  0  0  0
  3 18  1  0  0  0  0
  4 19  1  0  0  0  0
  4 20  1  0  0  0  0
  5 21  1  0  0  0  0
  5 22  1  0  0  0  0
  6 23  1  0  0  0  0
  6 24  1  0  0  0  0
  7 25  1  0  0  0  0
  7 26  1  0  0  0  0
  8 27  1  0  0  0  0
  8 28  1  0  0  0  0
  9 29  1  0  0  0  0
  9 30  1  0  0  0  0
 10 31  1  0  0  0  0
 11 32  1  0  0  0  0
M  END
> <Name>
IA_77.cdx

> <SourceTag>
IA_77

> <Gold.Version>
5.2

> <Gold.Id.Protein>
6HGV|6HGV_protein|mol2

> <Gold.Goldscore.Fitness>
47.3755

> <Gold.Goldscore.Internal.Vdw>
-3.0813

> <Gold.Goldscore.Internal.Torsion>
-1.6675

> <Gold.Goldscore.External.Vdw>
30.9254

> <Gold.Goldscore.Internal.HBond>
0.0000

> <Gold.Goldscore.External.HBond>
6.3971

> <Gold.Goldscore.Internal.Correction>
-3.2047

> <Gold.Goldscore.Hbonds>
donor molecule, donor type, donor heavy atom, donor atom, acceptor molecule, acceptor atom, score
      L1  H    10    31       P1   853  0.08
      L1  H    11    32       P1   853  0.99

> <Gold.Goldscore.Internal.Vdw.Weighted>
-3.0813

> <Gold.Goldscore.Internal.Torsion.Weighted>
-1.6675

> <Gold.Goldscore.External.Vdw.Weighted>
42.5224

> <Gold.Goldscore.Internal.HBond.Weighted>
0.0000

> <Gold.Goldscore.External.HBond.Weighted>
6.3971

> <Gold.Goldscore.Internal.Correction.Weighted>
-3.2047

> <Gold.Protein.RotatedTorsions>
[ 3781 1176 1175 1172 ] final -132.44 input   60.00 | X-H torsion
[ 3847 1247 1246 1244 ] final    6.54 input   60.00 | X-H torsion
[ 4507 1931 1930 1928 ] final   94.87 input   60.00 | X-H torsion
[ 3677 1070 1069 1066 ] final  -96.34 input   60.00 | X-H torsion
[ 3525  925  924  922 ] final  104.61 input   59.99 | X-H torsion
[ 4531 1957 1955 1953 ] final  -90.02 input   60.00 | X-H torsion

> <Gold.Protein.ActiveResidues>
 PHE267  PRO268  MET310  ASP335  TRP336  MET339  TYR343  THR360  PRO361  ILE363 
 PRO371  SER374  ILE375  ASN378  PHE381  TYR383  GLN384  PHE387  LEU408  LEU417 
 MET419  LEU428  TYR466  MET469  ASN472  ASP496  VAL498  LEU499  MET503  HIS524 
 TRP525 

> <Gold.Protein.RotatedAtoms>
   -2.2382  -30.1324  -30.5405 H   0  0  0  0  0  0  0  0  0  0  0  0  # atno 3525 bound_to 925 
  -11.7887  -23.7766  -31.4033 H   0  0  0  0  0  0  0  0  0  0  0  0  # atno 3677 bound_to 1070
   -9.3616  -36.3111  -33.5801 H   0  0  0  0  0  0  0  0  0  0  0  0  # atno 3781 bound_to 1176
  -15.6244  -28.7819  -37.0640 H   0  0  0  0  0  0  0  0  0  0  0  0  # atno 3847 bound_to 1247
  -12.4474  -24.1963  -39.0450 H   0  0  0  0  0  0  0  0  0  0  0  0  # atno 4507 bound_to 1931
   -1.5571  -32.4396  -36.9351 H   0  0  0  0  0  0  0  0  0  0  0  0  # atno 4531 bound_to 1957
  -10.0115  -37.1925  -32.3764 LP  0  0  0  0  0  0  0  0  0  0  0  0  # atno 5205 bound_to 1176
  -10.7423  -37.1335  -33.8355 LP  0  0  0  0  0  0  0  0  0  0  0  0  # atno 5206 bound_to 1176
  -15.6343  -27.2599  -37.6396 LP  0  0  0  0  0  0  0  0  0  0  0  0  # atno 5215 bound_to 1247
  -14.3027  -28.1903  -37.8064 LP  0  0  0  0  0  0  0  0  0  0  0  0  # atno 5216 bound_to 1247
  -13.4991  -25.3835  -39.4089 LP  0  0  0  0  0  0  0  0  0  0  0  0  # atno 5217 bound_to 1931
  -13.2526  -24.1571  -40.4585 LP  0  0  0  0  0  0  0  0  0  0  0  0  # atno 5218 bound_to 1931
  -11.2958  -22.3363  -30.8283 LP  0  0  0  0  0  0  0  0  0  0  0  0  # atno 5224 bound_to 1070
  -12.7707  -22.9152  -30.4329 LP  0  0  0  0  0  0  0  0  0  0  0  0  # atno 5225 bound_to 1070

$$$$
IA_36|SeH_inactivess_minimized|sdf|122|dock7
  -GOLD-   4172121243D 1   1.00000     0.00000

 38 39  0  0  0  0  0  0  0  0  1 V2000
  -19.0518  -24.1940  -38.0965 C   0  0  0  0  0  0  0  0  0  0  0  0
  -18.9022  -25.1594  -37.1010 C   0  0  0  0  0  0  0  0  0  0  0  0
  -17.9627  -23.4098  -38.4770 C   0  0  0  0  0  0  0  0  0  0  0  0
  -17.6633  -25.3406  -36.4859 C   0  0  0  0  0  0  0  0  0  0  0  0
  -16.7239  -23.5913  -37.8620 C   0  0  0  0  0  0  0  0  0  0  0  0
  -16.5742  -24.5566  -36.8665 C   0  0  0  0  0  0  0  0  0  0  0  0
  -14.7383  -25.9668  -35.8551 C   0  0  0  0  0  0  0  0  0  0  0  0
   -9.8309  -25.8818  -34.9753 C   0  0  0  0  0  0  0  0  0  0  0  0
  -10.6140  -26.3163  -36.2104 C   0  0  0  0  0  0  0  0  0  0  0  0
  -10.7503  -25.3372  -33.8864 C   0  0  0  0  0  0  0  0  0  0  0  0
  -11.7169  -27.3142  -35.8570 C   0  0  0  0  0  0  0  0  0  0  0  0
  -11.8534  -26.3336  -33.5292 C   0  0  0  0  0  0  0  0  0  0  0  0
  -12.6475  -26.7940  -34.7563 C   0  0  0  0  0  0  0  0  0  0  0  0
  -15.5749  -22.7369  -38.2896 C   0  0  0  0  0  0  0  0  0  0  0  0
  -15.3266  -24.7556  -36.2306 N   0  0  0  0  0  0  0  0  0  0  0  0
  -13.4982  -25.7351  -35.2523 N   0  0  0  0  0  0  0  0  0  0  0  0
  -15.2101  -27.0899  -36.0143 O   0  0  0  0  0  0  0  0  0  0  0  0
  -15.4172  -21.6670  -37.3674 O   0  0  0  0  0  0  0  0  0  0  0  0
  -20.0164  -24.0532  -38.5754 H   0  0  0  0  0  0  0  0  0  0  0  0
  -19.7501  -25.7701  -36.8048 H   0  0  0  0  0  0  0  0  0  0  0  0
  -18.0894  -22.6604  -39.2538 H   0  0  0  0  0  0  0  0  0  0  0  0
  -17.5597  -26.0964  -35.7113 H   0  0  0  0  0  0  0  0  0  0  0  0
   -9.2676  -26.7370  -34.5819 H   0  0  0  0  0  0  0  0  0  0  0  0
   -9.0966  -25.1176  -35.2541 H   0  0  0  0  0  0  0  0  0  0  0  0
  -11.0533  -25.4352  -36.6938 H   0  0  0  0  0  0  0  0  0  0  0  0
   -9.9303  -26.7685  -36.9379 H   0  0  0  0  0  0  0  0  0  0  0  0
  -10.1619  -25.1059  -32.9913 H   0  0  0  0  0  0  0  0  0  0  0  0
  -11.1982  -24.3945  -34.2233 H   0  0  0  0  0  0  0  0  0  0  0  0
  -12.2899  -27.5564  -36.7601 H   0  0  0  0  0  0  0  0  0  0  0  0
  -11.2513  -28.2480  -35.5170 H   0  0  0  0  0  0  0  0  0  0  0  0
  -11.3958  -27.2099  -33.0525 H   0  0  0  0  0  0  0  0  0  0  0  0
  -12.5229  -25.8827  -32.7868 H   0  0  0  0  0  0  0  0  0  0  0  0
  -13.3286  -27.5988  -34.4572 H   0  0  0  0  0  0  0  0  0  0  0  0
  -14.6426  -23.3151  -38.3238 H   0  0  0  0  0  0  0  0  0  0  0  0
  -15.7429  -22.3196  -39.2909 H   0  0  0  0  0  0  0  0  0  0  0  0
  -14.7928  -23.9158  -36.0213 H   0  0  0  0  0  0  0  0  0  0  0  0
  -13.1795  -24.7765  -35.1583 H   0  0  0  0  0  0  0  0  0  0  0  0
  -14.6789  -21.1255  -37.6903 H   0  0  0  0  0  0  0  0  0  0  0  0
  1  2  1  0  0  0  0
  1  3  2  0  0  0  0
  2  4  2  0  0  0  0
  3  5  1  0  0  0  0
  4  6  1  0  0  0  0
  5  6  2  0  0  0  0
  5 14  1  0  0  0  0
  6 15  1  0  0  0  0
  7 15  1  0  0  0  0
  7 16  1  0  0  0  0
  7 17  2  0  0  0  0
  8  9  1  0  0  0  0
  8 10  1  0  0  0  0
  9 11  1  0  0  0  0
 10 12  1  0  0  0  0
 11 13  1  0  0  0  0
 12 13  1  0  0  0  0
 13 16  1  0  0  0  0
 14 18  1  0  0  0  0
  1 19  1  0  0  0  0
  2 20  1  0  0  0  0
  3 21  1  0  0  0  0
  4 22  1  0  0  0  0
  8 23  1  0  0  0  0
  8 24  1  0  0  0  0
  9 25  1  0  0  0  0
  9 26  1  0  0  0  0
 10 27  1  0  0  0  0
 10 28  1  0  0  0  0
 11 29  1  0  0  0  0
 11 30  1  0  0  0  0
 12 31  1  0  0  0  0
 12 32  1  0  0  0  0
 13 33  1  0  0  0  0
 14 34  1  0  0  0  0
 14 35  1  0  0  0  0
 15 36  1  0  0  0  0
 16 37  1  0  0  0  0
 18 38  1  0  0  0  0
M  END
> <Name>
IA_36

> <SourceTag>
IA_36

> <Gold.Version>
5.2

> <Gold.Id.Protein>
6HGV|6HGV_protein|mol2

> <Gold.Goldscore.Fitness>
53.7984

> <Gold.Goldscore.Internal.Vdw>
-2.1111

> <Gold.Goldscore.Internal.Torsion>
-3.5760

> <Gold.Goldscore.External.Vdw>
37.3041

> <Gold.Goldscore.Internal.HBond>
0.0000

> <Gold.Goldscore.External.HBond>
3.2533

> <Gold.Goldscore.Internal.Correction>
-4.9391

> <Gold.Goldscore.Hbonds>
donor molecule, donor type, donor heavy atom, donor atom, acceptor molecule, acceptor atom, score
      L1  H    15    36       P1   853  0.45
      L1  H    16    37       P1   853  0.09
      L1  H    18    38       P1   302  0.03

> <Gold.Goldscore.Internal.Vdw.Weighted>
-2.1111

> <Gold.Goldscore.Internal.Torsion.Weighted>
-3.5760

> <Gold.Goldscore.External.Vdw.Weighted>
51.2931

> <Gold.Goldscore.Internal.HBond.Weighted>
0.0000

> <Gold.Goldscore.External.HBond.Weighted>
3.2533

> <Gold.Goldscore.Internal.Correction.Weighted>
-4.9391

> <Gold.Protein.RotatedTorsions>
[ 3781 1176 1175 1172 ] final -168.69 input   60.00 | X-H torsion
[ 3847 1247 1246 1244 ] final   68.43 input   60.00 | X-H torsion
[ 4507 1931 1930 1928 ] final   27.57 input   60.00 | X-H torsion
[ 3677 1070 1069 1066 ] final -125.85 input   60.00 | X-H torsion
[ 3525  925  924  922 ] final  -97.05 input   59.99 | X-H torsion
[ 4531 1957 1955 1953 ] final -106.71 input   60.00 | X-H torsion

> <Gold.Protein.ActiveResidues>
 PHE267  PRO268  MET310  ASP335  TRP336  MET339  TYR343  THR360  PRO361  ILE363 
 PRO371  SER374  ILE375  ASN378  PHE381  TYR383  GLN384  PHE387  LEU408  LEU417 
 MET419  LEU428  TYR466  MET469  ASN472  ASP496  VAL498  LEU499  MET503  HIS524 
 TRP525 

> <Gold.Protein.RotatedAtoms>
   -3.3459  -29.7799  -29.1154 H   0  0  0  0  0  0  0  0  0  0  0  0  # atno 3525 bound_to 925 
  -11.3931  -23.5139  -31.4481 H   0  0  0  0  0  0  0  0  0  0  0  0  # atno 3677 bound_to 1070
   -9.2444  -36.4410  -33.0245 H   0  0  0  0  0  0  0  0  0  0  0  0  # atno 3781 bound_to 1176
  -14.7206  -28.8810  -37.3808 H   0  0  0  0  0  0  0  0  0  0  0  0  # atno 3847 bound_to 1247
  -12.9562  -25.0798  -38.8532 H   0  0  0  0  0  0  0  0  0  0  0  0  # atno 4507 bound_to 1931
   -1.3886  -32.6500  -36.9708 H   0  0  0  0  0  0  0  0  0  0  0  0  # atno 4531 bound_to 1957
  -10.4891  -37.4142  -32.6351 LP  0  0  0  0  0  0  0  0  0  0  0  0  # atno 5205 bound_to 1176
  -10.3828  -36.7809  -34.1365 LP  0  0  0  0  0  0  0  0  0  0  0  0  # atno 5206 bound_to 1176
  -16.0724  -27.9963  -37.1859 LP  0  0  0  0  0  0  0  0  0  0  0  0  # atno 5215 bound_to 1247
  -14.7747  -27.3541  -37.9410 LP  0  0  0  0  0  0  0  0  0  0  0  0  # atno 5216 bound_to 1247
  -13.6631  -24.8699  -40.3038 LP  0  0  0  0  0  0  0  0  0  0  0  0  # atno 5217 bound_to 1931
  -12.5762  -23.7809  -39.7567 LP  0  0  0  0  0  0  0  0  0  0  0  0  # atno 5218 bound_to 1931
  -11.6603  -22.1776  -30.5587 LP  0  0  0  0  0  0  0  0  0  0  0  0  # atno 5224 bound_to 1070
  -12.8045  -23.3385  -30.6573 LP  0  0  0  0  0  0  0  0  0  0  0  0  # atno 5225 bound_to 1070

$$$$
IA_38|SeH_inactivess_minimized|sdf|124|dock10
  -GOLD-   4172121273D 1   1.00000     0.00000

 39 40  0  0  0  0  0  0  0  0  1 V2000
   -6.7105  -32.8705  -35.6030 C   0  0  0  0  0  0  0  0  0  0  0  0
   -5.4610  -33.0046  -34.9974 C   0  0  0  0  0  0  0  0  0  0  0  0
   -7.3131  -31.6153  -35.6881 C   0  0  0  0  0  0  0  0  0  0  0  0
   -4.8144  -31.8835  -34.4770 C   0  0  0  0  0  0  0  0  0  0  0  0
   -6.6663  -30.4943  -35.1676 C   0  0  0  0  0  0  0  0  0  0  0  0
   -5.4171  -30.6284  -34.5621 C   0  0  0  0  0  0  0  0  0  0  0  0
   -8.6055  -29.0461  -34.4468 C   0  0  0  0  0  0  0  0  0  0  0  0
  -12.0054  -25.6902  -35.7582 C   0  0  0  0  0  0  0  0  0  0  0  0
  -10.7836  -25.1723  -35.0056 C   0  0  0  0  0  0  0  0  0  0  0  0
  -11.9126  -27.1901  -36.0213 C   0  0  0  0  0  0  0  0  0  0  0  0
  -10.5428  -25.9543  -33.7144 C   0  0  0  0  0  0  0  0  0  0  0  0
  -11.6738  -27.9754  -34.7316 C   0  0  0  0  0  0  0  0  0  0  0  0
  -10.4572  -27.4658  -33.9516 C   0  0  0  0  0  0  0  0  0  0  0  0
   -7.3369  -29.1499  -35.2714 C   0  0  0  0  0  0  0  0  0  0  0  0
   -4.7054  -29.4430  -33.9978 C   0  0  0  0  0  0  0  0  0  0  0  0
   -9.2251  -27.8177  -34.6218 N   0  0  0  0  0  0  0  0  0  0  0  0
   -9.0200  -29.9486  -33.7240 O   0  0  0  0  0  0  0  0  0  0  0  0
   -4.3765  -28.5468  -35.0513 O   0  0  0  0  0  0  0  0  0  0  0  0
   -7.2139  -33.7432  -36.0082 H   0  0  0  0  0  0  0  0  0  0  0  0
   -4.9919  -33.9819  -34.9311 H   0  0  0  0  0  0  0  0  0  0  0  0
   -8.2867  -31.5213  -36.1617 H   0  0  0  0  0  0  0  0  0  0  0  0
   -3.8412  -31.9985  -34.0071 H   0  0  0  0  0  0  0  0  0  0  0  0
  -12.9094  -25.4785  -35.1738 H   0  0  0  0  0  0  0  0  0  0  0  0
  -12.1076  -25.1546  -36.7087 H   0  0  0  0  0  0  0  0  0  0  0  0
   -9.8995  -25.2425  -35.6509 H   0  0  0  0  0  0  0  0  0  0  0  0
  -10.9202  -24.1106  -34.7707 H   0  0  0  0  0  0  0  0  0  0  0  0
  -12.8376  -27.5373  -36.4955 H   0  0  0  0  0  0  0  0  0  0  0  0
  -11.0997  -27.3876  -36.7307 H   0  0  0  0  0  0  0  0  0  0  0  0
   -9.6266  -25.5896  -33.2347 H   0  0  0  0  0  0  0  0  0  0  0  0
  -11.3673  -25.7497  -33.0195 H   0  0  0  0  0  0  0  0  0  0  0  0
  -12.5649  -27.8894  -34.0966 H   0  0  0  0  0  0  0  0  0  0  0  0
  -11.5570  -29.0393  -34.9710 H   0  0  0  0  0  0  0  0  0  0  0  0
  -10.4174  -27.9759  -32.9823 H   0  0  0  0  0  0  0  0  0  0  0  0
   -6.6402  -28.3656  -34.9497 H   0  0  0  0  0  0  0  0  0  0  0  0
   -7.5828  -28.9383  -36.3196 H   0  0  0  0  0  0  0  0  0  0  0  0
   -5.3318  -28.9147  -33.2671 H   0  0  0  0  0  0  0  0  0  0  0  0
   -3.7810  -29.7415  -33.4861 H   0  0  0  0  0  0  0  0  0  0  0  0
   -8.7973  -27.1397  -35.2444 H   0  0  0  0  0  0  0  0  0  0  0  0
   -3.9323  -27.7862  -34.6432 H   0  0  0  0  0  0  0  0  0  0  0  0
  1  2  1  0  0  0  0
  1  3  2  0  0  0  0
  2  4  2  0  0  0  0
  3  5  1  0  0  0  0
  4  6  1  0  0  0  0
  5  6  2  0  0  0  0
  5 14  1  0  0  0  0
  6 15  1  0  0  0  0
  7 14  1  0  0  0  0
  7 16  1  0  0  0  0
  7 17  2  0  0  0  0
  8  9  1  0  0  0  0
  8 10  1  0  0  0  0
  9 11  1  0  0  0  0
 10 12  1  0  0  0  0
 11 13  1  0  0  0  0
 12 13  1  0  0  0  0
 13 16  1  0  0  0  0
 15 18  1  0  0  0  0
  1 19  1  0  0  0  0
  2 20  1  0  0  0  0
  3 21  1  0  0  0  0
  4 22  1  0  0  0  0
  8 23  1  0  0  0  0
  8 24  1  0  0  0  0
  9 25  1  0  0  0  0
  9 26  1  0  0  0  0
 10 27  1  0  0  0  0
 10 28  1  0  0  0  0
 11 29  1  0  0  0  0
 11 30  1  0  0  0  0
 12 31  1  0  0  0  0
 12 32  1  0  0  0  0
 13 33  1  0  0  0  0
 14 34  1  0  0  0  0
 14 35  1  0  0  0  0
 15 36  1  0  0  0  0
 15 37  1  0  0  0  0
 16 38  1  0  0  0  0
 18 39  1  0  0  0  0
M  END
> <Name>
IA_38

> <SourceTag>
IA_38

> <Gold.Version>
5.2

> <Gold.Id.Protein>
6HGV|6HGV_protein|mol2

> <Gold.Goldscore.Fitness>
49.9841

> <Gold.Goldscore.Internal.Vdw>
-5.1938

> <Gold.Goldscore.Internal.Torsion>
-1.9950

> <Gold.Goldscore.External.Vdw>
38.9344

> <Gold.Goldscore.Internal.HBond>
0.0000

> <Gold.Goldscore.External.HBond>
0.0206

> <Gold.Goldscore.Internal.Correction>
-3.6176

> <Gold.Goldscore.Hbonds>
donor molecule, donor type, donor heavy atom, donor atom, acceptor molecule, acceptor atom, score
      P1  H  1994  4571       L1    18  0.01

> <Gold.Goldscore.Internal.Vdw.Weighted>
-5.1938

> <Gold.Goldscore.Internal.Torsion.Weighted>
-1.9950

> <Gold.Goldscore.External.Vdw.Weighted>
53.5347

> <Gold.Goldscore.Internal.HBond.Weighted>
0.0000

> <Gold.Goldscore.External.HBond.Weighted>
0.0206

> <Gold.Goldscore.Internal.Correction.Weighted>
-3.6176

> <Gold.Protein.RotatedTorsions>
[ 3781 1176 1175 1172 ] final   14.79 input   60.00 | X-H torsion
[ 3847 1247 1246 1244 ] final   63.51 input   60.00 | X-H torsion
[ 4507 1931 1930 1928 ] final  -62.63 input   60.00 | X-H torsion
[ 3677 1070 1069 1066 ] final -148.70 input   60.00 | X-H torsion
[ 3525  925  924  922 ] final   26.35 input   59.99 | X-H torsion
[ 4531 1957 1955 1953 ] final   22.75 input   60.00 | X-H torsion

> <Gold.Protein.ActiveResidues>
 PHE267  PRO268  MET310  ASP335  TRP336  MET339  TYR343  THR360  PRO361  ILE363 
 PRO371  SER374  ILE375  ASN378  PHE381  TYR383  GLN384  PHE387  LEU408  LEU417 
 MET419  LEU428  TYR466  MET469  ASN472  ASP496  VAL498  LEU499  MET503  HIS524 
 TRP525 

> <Gold.Protein.RotatedAtoms>
   -3.2953  -29.6516  -30.7583 H   0  0  0  0  0  0  0  0  0  0  0  0  # atno 3525 bound_to 925 
  -11.1822  -23.2161  -31.3822 H   0  0  0  0  0  0  0  0  0  0  0  0  # atno 3677 bound_to 1070
  -10.8299  -37.3382  -33.4533 H   0  0  0  0  0  0  0  0  0  0  0  0  # atno 3781 bound_to 1176
  -14.7862  -28.9096  -37.3441 H   0  0  0  0  0  0  0  0  0  0  0  0  # atno 3847 bound_to 1247
  -13.6873  -25.2014  -39.9531 H   0  0  0  0  0  0  0  0  0  0  0  0  # atno 4507 bound_to 1931
   -3.0446  -32.8173  -36.6588 H   0  0  0  0  0  0  0  0  0  0  0  0  # atno 4531 bound_to 1957
   -9.6264  -36.3530  -33.9319 LP  0  0  0  0  0  0  0  0  0  0  0  0  # atno 5205 bound_to 1176
   -9.6487  -36.9387  -32.4078 LP  0  0  0  0  0  0  0  0  0  0  0  0  # atno 5206 bound_to 1176
  -16.0720  -27.9208  -37.2150 LP  0  0  0  0  0  0  0  0  0  0  0  0  # atno 5215 bound_to 1247
  -14.7090  -27.4009  -37.9488 LP  0  0  0  0  0  0  0  0  0  0  0  0  # atno 5216 bound_to 1247
  -12.8434  -23.8253  -40.1588 LP  0  0  0  0  0  0  0  0  0  0  0  0  # atno 5217 bound_to 1931
  -12.6597  -24.7030  -38.7940 LP  0  0  0  0  0  0  0  0  0  0  0  0  # atno 5218 bound_to 1931
  -12.0002  -22.2031  -30.4061 LP  0  0  0  0  0  0  0  0  0  0  0  0  # atno 5224 bound_to 1070
  -12.6771  -23.6129  -30.8762 LP  0  0  0  0  0  0  0  0  0  0  0  0  # atno 5225 bound_to 1070

$$$$
IA_72.cdx|SeH_inactivess_minimized|sdf|150|dock6
  -GOLD-   4172122 73D 1   1.00000     0.00000

 20 19  0  0  0  0  0  0  0  0  1 V2000
  -11.3645  -27.3099  -35.3849 C   0  0  0  0  0  0  0  0  0  0  0  0
  -11.7224  -24.8623  -35.8030 C   0  0  0  0  0  0  0  0  0  0  0  0
  -13.6633  -26.3830  -35.7434 C   0  0  0  0  0  0  0  0  0  0  0  0
   -8.9789  -27.9709  -34.9776 C   0  0  0  0  0  0  0  0  0  0  0  0
   -9.7749  -25.7620  -34.2230 C   0  0  0  0  0  0  0  0  0  0  0  0
  -12.2195  -26.2260  -35.6346 N   0  0  0  0  0  0  0  0  0  0  0  0
  -10.0872  -27.0237  -34.8801 N   0  0  0  0  0  0  0  0  0  0  0  0
  -11.7235  -28.4748  -35.6017 O   0  0  0  0  0  0  0  0  0  0  0  0
  -11.7851  -24.3199  -34.8561 H   0  0  0  0  0  0  0  0  0  0  0  0
  -12.3178  -24.3328  -36.5520 H   0  0  0  0  0  0  0  0  0  0  0  0
  -10.6797  -24.8779  -36.1314 H   0  0  0  0  0  0  0  0  0  0  0  0
  -14.1698  -25.6491  -35.1113 H   0  0  0  0  0  0  0  0  0  0  0  0
  -13.9594  -27.3862  -35.4247 H   0  0  0  0  0  0  0  0  0  0  0  0
  -13.9824  -26.2358  -36.7787 H   0  0  0  0  0  0  0  0  0  0  0  0
   -8.9561  -28.6146  -34.0945 H   0  0  0  0  0  0  0  0  0  0  0  0
   -8.0285  -27.4348  -35.0470 H   0  0  0  0  0  0  0  0  0  0  0  0
   -9.0938  -28.5970  -35.8666 H   0  0  0  0  0  0  0  0  0  0  0  0
   -8.8969  -25.8793  -33.5825 H   0  0  0  0  0  0  0  0  0  0  0  0
  -10.6185  -25.4373  -33.6079 H   0  0  0  0  0  0  0  0  0  0  0  0
   -9.5665  -24.9893  -34.9679 H   0  0  0  0  0  0  0  0  0  0  0  0
  1  6  1  0  0  0  0
  1  7  1  0  0  0  0
  1  8  2  0  0  0  0
  2  6  1  0  0  0  0
  3  6  1  0  0  0  0
  4  7  1  0  0  0  0
  5  7  1  0  0  0  0
  2  9  1  0  0  0  0
  2 10  1  0  0  0  0
  2 11  1  0  0  0  0
  3 12  1  0  0  0  0
  3 13  1  0  0  0  0
  3 14  1  0  0  0  0
  4 15  1  0  0  0  0
  4 16  1  0  0  0  0
  4 17  1  0  0  0  0
  5 18  1  0  0  0  0
  5 19  1  0  0  0  0
  5 20  1  0  0  0  0
M  END
> <Name>
IA_72.cdx

> <SourceTag>
IA_72

> <Gold.Version>
5.2

> <Gold.Id.Protein>
6HGV|6HGV_protein|mol2

> <Gold.Goldscore.Fitness>
29.4018

> <Gold.Goldscore.Internal.Vdw>
-34.3857

> <Gold.Goldscore.Internal.Torsion>
-8.4285

> <Gold.Goldscore.External.Vdw>
21.5372

> <Gold.Goldscore.Internal.HBond>
0.0000

> <Gold.Goldscore.External.HBond>
0.0587

> <Gold.Goldscore.Internal.Correction>
-42.5437

> <Gold.Goldscore.Hbonds>
donor molecule, donor type, donor heavy atom, donor atom, acceptor molecule, acceptor atom, score
      P1  H  1256  3854       L1     8  0.03

> <Gold.Goldscore.Internal.Vdw.Weighted>
-34.3857

> <Gold.Goldscore.Internal.Torsion.Weighted>
-8.4285

> <Gold.Goldscore.External.Vdw.Weighted>
29.6137

> <Gold.Goldscore.Internal.HBond.Weighted>
0.0000

> <Gold.Goldscore.External.HBond.Weighted>
0.0587

> <Gold.Goldscore.Internal.Correction.Weighted>
-42.5437

> <Gold.Protein.RotatedTorsions>
[ 3781 1176 1175 1172 ] final   64.68 input   60.00 | X-H torsion
[ 3847 1247 1246 1244 ] final   56.19 input   60.00 | X-H torsion
[ 4507 1931 1930 1928 ] final    8.62 input   60.00 | X-H torsion
[ 3677 1070 1069 1066 ] final -117.09 input   60.00 | X-H torsion
[ 3525  925  924  922 ] final  -42.22 input   59.99 | X-H torsion
[ 4531 1957 1955 1953 ] final  179.22 input   60.00 | X-H torsion

> <Gold.Protein.ActiveResidues>
 PHE267  PRO268  MET310  ASP335  TRP336  MET339  TYR343  THR360  PRO361  ILE363 
 PRO371  SER374  ILE375  ASN378  PHE381  TYR383  GLN384  PHE387  LEU408  LEU417 
 MET419  LEU428  TYR466  MET469  ASN472  ASP496  VAL498  LEU499  MET503  HIS524 
 TRP525 

> <Gold.Protein.RotatedAtoms>
   -3.7693  -29.5305  -29.8239 H   0  0  0  0  0  0  0  0  0  0  0  0  # atno 3525 bound_to 925 
  -11.4995  -23.6094  -31.4502 H   0  0  0  0  0  0  0  0  0  0  0  0  # atno 3677 bound_to 1070
  -10.5573  -37.4316  -32.7181 H   0  0  0  0  0  0  0  0  0  0  0  0  # atno 3781 bound_to 1176
  -14.8890  -28.9408  -37.2918 H   0  0  0  0  0  0  0  0  0  0  0  0  # atno 3847 bound_to 1247
  -13.1645  -25.2555  -38.9976 H   0  0  0  0  0  0  0  0  0  0  0  0  # atno 4507 bound_to 1931
   -1.5098  -33.7713  -36.9671 H   0  0  0  0  0  0  0  0  0  0  0  0  # atno 4531 bound_to 1957
  -10.2973  -36.7164  -34.1564 LP  0  0  0  0  0  0  0  0  0  0  0  0  # atno 5205 bound_to 1176
   -9.2525  -36.4811  -32.9236 LP  0  0  0  0  0  0  0  0  0  0  0  0  # atno 5206 bound_to 1176
  -16.0594  -27.8107  -37.2620 LP  0  0  0  0  0  0  0  0  0  0  0  0  # atno 5215 bound_to 1247
  -14.6181  -27.4795  -37.9545 LP  0  0  0  0  0  0  0  0  0  0  0  0  # atno 5216 bound_to 1247
  -13.5592  -24.6099  -40.4383 LP  0  0  0  0  0  0  0  0  0  0  0  0  # atno 5217 bound_to 1931
  -12.4703  -23.8639  -39.4768 LP  0  0  0  0  0  0  0  0  0  0  0  0  # atno 5218 bound_to 1931
  -11.5394  -22.2029  -30.6326 LP  0  0  0  0  0  0  0  0  0  0  0  0  # atno 5224 bound_to 1070
  -12.8183  -23.2170  -30.5813 LP  0  0  0  0  0  0  0  0  0  0  0  0  # atno 5225 bound_to 1070

$$$$
IA_91.cdx|SeH_inactivess_minimized|sdf|170|dock9
  -GOLD-   41821 8273D 1   1.00000     0.00000

 49 48  0  0  0  0  0  0  0  0  1 V2000
   -5.0077  -32.3642  -35.7831 C   0  0  0  0  0  0  0  0  0  0  0  0
   -6.1584  -32.7025  -35.8367 C   0  0  0  0  0  0  0  0  0  0  0  0
   -8.4220  -30.8220  -35.4521 C   0  0  0  0  0  0  0  0  0  0  0  0
  -21.4749  -23.4891  -38.0193 C   0  0  0  0  0  0  0  0  0  0  0  0
   -7.5610  -33.1199  -35.9049 C   0  0  0  0  0  0  0  0  0  0  0  0
  -20.4566  -24.2215  -37.1598 C   0  0  0  0  0  0  0  0  0  0  0  0
  -19.0416  -24.0775  -37.7220 C   0  0  0  0  0  0  0  0  0  0  0  0
  -18.0227  -24.8168  -36.8521 C   0  0  0  0  0  0  0  0  0  0  0  0
  -16.5845  -24.6995  -37.3657 C   0  0  0  0  0  0  0  0  0  0  0  0
  -15.5578  -25.3886  -36.4630 C   0  0  0  0  0  0  0  0  0  0  0  0
  -14.1414  -25.2386  -37.0252 C   0  0  0  0  0  0  0  0  0  0  0  0
  -13.0822  -25.9940  -36.2174 C   0  0  0  0  0  0  0  0  0  0  0  0
  -11.6533  -25.5229  -36.4970 C   0  0  0  0  0  0  0  0  0  0  0  0
  -10.6373  -26.3099  -35.6648 C   0  0  0  0  0  0  0  0  0  0  0  0
  -10.3569  -27.6821  -36.2853 C   0  0  0  0  0  0  0  0  0  0  0  0
   -9.5471  -28.6014  -35.3693 C   0  0  0  0  0  0  0  0  0  0  0  0
   -8.4142  -31.9933  -36.2047 N   0  0  0  0  0  0  0  0  0  0  0  0
   -9.3340  -29.9145  -35.9655 N   0  0  0  0  0  0  0  0  0  0  0  0
   -7.7133  -30.6232  -34.4664 O   0  0  0  0  0  0  0  0  0  0  0  0
   -3.9871  -32.0640  -35.7349 H   0  0  0  0  0  0  0  0  0  0  0  0
  -22.4755  -23.5856  -37.5863 H   0  0  0  0  0  0  0  0  0  0  0  0
  -21.2358  -22.4231  -38.0881 H   0  0  0  0  0  0  0  0  0  0  0  0
  -21.5017  -23.9020  -39.0327 H   0  0  0  0  0  0  0  0  0  0  0  0
   -7.8730  -33.5619  -34.9536 H   0  0  0  0  0  0  0  0  0  0  0  0
   -7.6883  -33.8835  -36.6789 H   0  0  0  0  0  0  0  0  0  0  0  0
  -20.7300  -25.2815  -37.1042 H   0  0  0  0  0  0  0  0  0  0  0  0
  -20.4937  -23.8227  -36.1394 H   0  0  0  0  0  0  0  0  0  0  0  0
  -18.7860  -23.0135  -37.7787 H   0  0  0  0  0  0  0  0  0  0  0  0
  -19.0103  -24.4748  -38.7436 H   0  0  0  0  0  0  0  0  0  0  0  0
  -18.0765  -24.4456  -35.8213 H   0  0  0  0  0  0  0  0  0  0  0  0
  -18.2867  -25.8812  -36.8181 H   0  0  0  0  0  0  0  0  0  0  0  0
  -16.3226  -23.6412  -37.4851 H   0  0  0  0  0  0  0  0  0  0  0  0
  -16.5414  -25.1501  -38.3652 H   0  0  0  0  0  0  0  0  0  0  0  0
  -15.5915  -24.9559  -35.4573 H   0  0  0  0  0  0  0  0  0  0  0  0
  -15.8154  -26.4496  -36.3731 H   0  0  0  0  0  0  0  0  0  0  0  0
  -14.1187  -25.5780  -38.0680 H   0  0  0  0  0  0  0  0  0  0  0  0
  -13.8707  -24.1755  -37.0331 H   0  0  0  0  0  0  0  0  0  0  0  0
  -13.1640  -27.0691  -36.4184 H   0  0  0  0  0  0  0  0  0  0  0  0
  -13.3027  -25.8549  -35.1517 H   0  0  0  0  0  0  0  0  0  0  0  0
  -11.5672  -24.4541  -36.2671 H   0  0  0  0  0  0  0  0  0  0  0  0
  -11.4175  -25.6478  -37.5598 H   0  0  0  0  0  0  0  0  0  0  0  0
   -9.7016  -25.7420  -35.5949 H   0  0  0  0  0  0  0  0  0  0  0  0
  -11.0214  -26.4294  -34.6449 H   0  0  0  0  0  0  0  0  0  0  0  0
  -11.3038  -28.1671  -36.5540 H   0  0  0  0  0  0  0  0  0  0  0  0
   -9.7974  -27.5468  -37.2194 H   0  0  0  0  0  0  0  0  0  0  0  0
   -8.5742  -28.1403  -35.1660 H   0  0  0  0  0  0  0  0  0  0  0  0
  -10.0604  -28.7200  -34.4090 H   0  0  0  0  0  0  0  0  0  0  0  0
   -9.0385  -32.0590  -37.0026 H   0  0  0  0  0  0  0  0  0  0  0  0
   -9.8452  -30.1352  -36.8066 H   0  0  0  0  0  0  0  0  0  0  0  0
  1  2  3  0  0  0  0
  2  5  1  0  0  0  0
  3 17  1  0  0  0  0
  3 18  1  0  0  0  0
  3 19  2  0  0  0  0
  4  6  1  0  0  0  0
  5 17  1  0  0  0  0
  6  7  1  0  0  0  0
  7  8  1  0  0  0  0
  8  9  1  0  0  0  0
  9 10  1  0  0  0  0
 10 11  1  0  0  0  0
 11 12  1  0  0  0  0
 12 13  1  0  0  0  0
 13 14  1  0  0  0  0
 14 15  1  0  0  0  0
 15 16  1  0  0  0  0
 16 18  1  0  0  0  0
  1 20  1  0  0  0  0
  4 21  1  0  0  0  0
  4 22  1  0  0  0  0
  4 23  1  0  0  0  0
  5 24  1  0  0  0  0
  5 25  1  0  0  0  0
  6 26  1  0  0  0  0
  6 27  1  0  0  0  0
  7 28  1  0  0  0  0
  7 29  1  0  0  0  0
  8 30  1  0  0  0  0
  8 31  1  0  0  0  0
  9 32  1  0  0  0  0
  9 33  1  0  0  0  0
 10 34  1  0  0  0  0
 10 35  1  0  0  0  0
 11 36  1  0  0  0  0
 11 37  1  0  0  0  0
 12 38  1  0  0  0  0
 12 39  1  0  0  0  0
 13 40  1  0  0  0  0
 13 41  1  0  0  0  0
 14 42  1  0  0  0  0
 14 43  1  0  0  0  0
 15 44  1  0  0  0  0
 15 45  1  0  0  0  0
 16 46  1  0  0  0  0
 16 47  1  0  0  0  0
 17 48  1  0  0  0  0
 18 49  1  0  0  0  0
M  END
> <Name>
IA_91.cdx

> <SourceTag>
IA_91

> <Gold.Version>
5.2

> <Gold.Id.Protein>
6HGV|6HGV_protein|mol2

> <Gold.Goldscore.Fitness>
63.5891

> <Gold.Goldscore.Internal.Vdw>
-5.4855

> <Gold.Goldscore.Internal.Torsion>
-2.8588

> <Gold.Goldscore.External.Vdw>
47.2378

> <Gold.Goldscore.Internal.HBond>
0.0000

> <Gold.Goldscore.External.HBond>
1.7594

> <Gold.Goldscore.Internal.Correction>
-5.2221

> <Gold.Goldscore.Hbonds>
donor molecule, donor type, donor heavy atom, donor atom, acceptor molecule, acceptor atom, score
      L1  H    17    48       P1  1255  0.36
      L1  H    18    49       P1  1255  0.52

> <Gold.Goldscore.Internal.Vdw.Weighted>
-5.4855

> <Gold.Goldscore.Internal.Torsion.Weighted>
-2.8588

> <Gold.Goldscore.External.Vdw.Weighted>
64.9519

> <Gold.Goldscore.Internal.HBond.Weighted>
0.0000

> <Gold.Goldscore.External.HBond.Weighted>
1.7594

> <Gold.Goldscore.Internal.Correction.Weighted>
-5.2221

> <Gold.Protein.RotatedTorsions>
[ 3781 1176 1175 1172 ] final  -77.46 input   60.00 | X-H torsion
[ 3847 1247 1246 1244 ] final   64.19 input   60.00 | X-H torsion
[ 4507 1931 1930 1928 ] final  113.51 input   60.00 | X-H torsion
[ 3677 1070 1069 1066 ] final  -75.47 input   60.00 | X-H torsion
[ 3525  925  924  922 ] final   -0.68 input   59.99 | X-H torsion
[ 4531 1957 1955 1953 ] final  110.46 input   60.00 | X-H torsion

> <Gold.Protein.ActiveResidues>
 PHE267  PRO268  MET310  ASP335  TRP336  MET339  TYR343  THR360  PRO361  ILE363 
 PRO371  SER374  ILE375  ASN378  PHE381  TYR383  GLN384  PHE387  LEU408  LEU417 
 MET419  LEU428  TYR466  MET469  ASN472  ASP496  VAL498  LEU499  MET503  HIS524 
 TRP525 

> <Gold.Protein.RotatedAtoms>
   -3.6033  -29.5440  -30.4666 H   0  0  0  0  0  0  0  0  0  0  0  0  # atno 3525 bound_to 925 
  -12.1005  -23.8447  -31.2887 H   0  0  0  0  0  0  0  0  0  0  0  0  # atno 3677 bound_to 1070
   -9.9922  -36.5254  -34.1310 H   0  0  0  0  0  0  0  0  0  0  0  0  # atno 3781 bound_to 1176
  -14.7769  -28.9060  -37.3491 H   0  0  0  0  0  0  0  0  0  0  0  0  # atno 3847 bound_to 1247
  -12.4346  -23.9916  -39.2684 H   0  0  0  0  0  0  0  0  0  0  0  0  # atno 4507 bound_to 1931
   -2.5247  -34.0000  -36.7781 H   0  0  0  0  0  0  0  0  0  0  0  0  # atno 4531 bound_to 1957
   -9.3680  -36.6664  -32.6348 LP  0  0  0  0  0  0  0  0  0  0  0  0  # atno 5205 bound_to 1176
  -10.7508  -37.4438  -33.0224 LP  0  0  0  0  0  0  0  0  0  0  0  0  # atno 5206 bound_to 1176
  -16.0725  -27.9312  -37.2108 LP  0  0  0  0  0  0  0  0  0  0  0  0  # atno 5215 bound_to 1247
  -14.7179  -27.3941  -37.9480 LP  0  0  0  0  0  0  0  0  0  0  0  0  # atno 5216 bound_to 1247
  -13.3273  -25.3477  -39.1590 LP  0  0  0  0  0  0  0  0  0  0  0  0  # atno 5217 bound_to 1931
  -13.4374  -24.3989  -40.4835 LP  0  0  0  0  0  0  0  0  0  0  0  0  # atno 5218 bound_to 1931
  -11.1369  -22.5586  -31.0330 LP  0  0  0  0  0  0  0  0  0  0  0  0  # atno 5224 bound_to 1070
  -12.6156  -22.6244  -30.3435 LP  0  0  0  0  0  0  0  0  0  0  0  0  # atno 5225 bound_to 1070

$$$$
IA_206.cdx|SeH_inactivess_minimized|sdf|103|dock4
  -GOLD-   4172120493D 1   1.00000     0.00000

 30 30  0  0  0  0  0  0  0  0  1 V2000
  -12.6693  -24.7366  -36.9696 C   0  0  0  0  0  0  0  0  0  0  0  0
  -13.2541  -26.4566  -35.3769 C   0  0  0  0  0  0  0  0  0  0  0  0
  -14.0159  -24.5838  -37.2993 C   0  0  0  0  0  0  0  0  0  0  0  0
  -14.6009  -26.3038  -35.7066 C   0  0  0  0  0  0  0  0  0  0  0  0
  -12.2883  -25.6730  -36.0085 C   0  0  0  0  0  0  0  0  0  0  0  0
  -14.9818  -25.3674  -36.6678 C   0  0  0  0  0  0  0  0  0  0  0  0
  -17.4489  -25.2377  -36.1416 C   0  0  0  0  0  0  0  0  0  0  0  0
  -10.3190  -27.2461  -35.9801 C   0  0  0  0  0  0  0  0  0  0  0  0
  -10.5607  -25.4964  -34.1814 C   0  0  0  0  0  0  0  0  0  0  0  0
  -19.9373  -25.0227  -36.2447 C   0  0  0  0  0  0  0  0  0  0  0  0
  -10.8484  -25.8362  -35.6560 C   0  0  0  0  0  0  0  0  0  0  0  0
  -16.3289  -25.2147  -36.9971 N   0  0  0  0  0  0  0  0  0  0  0  0
  -18.6317  -25.0461  -36.8630 N   0  0  0  0  0  0  0  0  0  0  0  0
  -17.4240  -25.4011  -34.9240 O   0  0  0  0  0  0  0  0  0  0  0  0
  -11.9232  -24.1233  -37.4683 H   0  0  0  0  0  0  0  0  0  0  0  0
  -12.9662  -27.1891  -34.6274 H   0  0  0  0  0  0  0  0  0  0  0  0
  -14.3014  -23.8508  -38.0495 H   0  0  0  0  0  0  0  0  0  0  0  0
  -15.3452  -26.9204  -35.2090 H   0  0  0  0  0  0  0  0  0  0  0  0
  -10.8508  -28.0169  -35.4118 H   0  0  0  0  0  0  0  0  0  0  0  0
   -9.2527  -27.3372  -35.7463 H   0  0  0  0  0  0  0  0  0  0  0  0
  -10.4488  -27.4677  -37.0454 H   0  0  0  0  0  0  0  0  0  0  0  0
   -9.4820  -25.5090  -33.9895 H   0  0  0  0  0  0  0  0  0  0  0  0
  -11.0297  -26.2191  -33.5049 H   0  0  0  0  0  0  0  0  0  0  0  0
  -10.9355  -24.5017  -33.9163 H   0  0  0  0  0  0  0  0  0  0  0  0
  -20.3864  -24.0320  -36.3524 H   0  0  0  0  0  0  0  0  0  0  0  0
  -19.8556  -25.2582  -35.1801 H   0  0  0  0  0  0  0  0  0  0  0  0
  -20.5925  -25.7594  -36.7172 H   0  0  0  0  0  0  0  0  0  0  0  0
  -10.2341  -25.1363  -36.2540 H   0  0  0  0  0  0  0  0  0  0  0  0
  -16.5470  -25.0647  -37.9878 H   0  0  0  0  0  0  0  0  0  0  0  0
  -18.5700  -24.9176  -37.8680 H   0  0  0  0  0  0  0  0  0  0  0  0
  1  3  1  0  0  0  0
  1  5  2  0  0  0  0
  2  4  2  0  0  0  0
  2  5  1  0  0  0  0
  3  6  2  0  0  0  0
  4  6  1  0  0  0  0
  5 11  1  0  0  0  0
  6 12  1  0  0  0  0
  7 12  1  0  0  0  0
  7 13  1  0  0  0  0
  7 14  2  0  0  0  0
  8 11  1  0  0  0  0
  9 11  1  0  0  0  0
 10 13  1  0  0  0  0
  1 15  1  0  0  0  0
  2 16  1  0  0  0  0
  3 17  1  0  0  0  0
  4 18  1  0  0  0  0
  8 19  1  0  0  0  0
  8 20  1  0  0  0  0
  8 21  1  0  0  0  0
  9 22  1  0  0  0  0
  9 23  1  0  0  0  0
  9 24  1  0  0  0  0
 10 25  1  0  0  0  0
 10 26  1  0  0  0  0
 10 27  1  0  0  0  0
 11 28  1  0  0  0  0
 12 29  1  0  0  0  0
 13 30  1  0  0  0  0
M  END
> <Name>
IA_206.cdx

> <SourceTag>
IA_206

> <Gold.Version>
5.2

> <Gold.Id.Protein>
6HGV|6HGV_protein|mol2

> <Gold.Goldscore.Fitness>
50.2100

> <Gold.Goldscore.Internal.Vdw>
-1.0913

> <Gold.Goldscore.Internal.Torsion>
-3.6266

> <Gold.Goldscore.External.Vdw>
37.0202

> <Gold.Goldscore.Internal.HBond>
0.0000

> <Gold.Goldscore.External.HBond>
0.0000

> <Gold.Goldscore.Internal.Correction>
-4.0250

> <Gold.Goldscore.Internal.Vdw.Weighted>
-1.0913

> <Gold.Goldscore.Internal.Torsion.Weighted>
-3.6266

> <Gold.Goldscore.External.Vdw.Weighted>
50.9028

> <Gold.Goldscore.Internal.HBond.Weighted>
0.0000

> <Gold.Goldscore.External.HBond.Weighted>
0.0000

> <Gold.Goldscore.Internal.Correction.Weighted>
-4.0250

> <Gold.Protein.RotatedTorsions>
[ 3781 1176 1175 1172 ] final -142.41 input   60.00 | X-H torsion
[ 3847 1247 1246 1244 ] final  135.49 input   60.00 | X-H torsion
[ 4507 1931 1930 1928 ] final  -81.62 input   60.00 | X-H torsion
[ 3677 1070 1069 1066 ] final  -79.21 input   60.00 | X-H torsion
[ 3525  925  924  922 ] final   90.71 input   59.99 | X-H torsion
[ 4531 1957 1955 1953 ] final    4.70 input   60.00 | X-H torsion

> <Gold.Protein.ActiveResidues>
 PHE267  PRO268  MET310  ASP335  TRP336  MET339  TYR343  THR360  PRO361  ILE363 
 PRO371  SER374  ILE375  ASN378  PHE381  TYR383  GLN384  PHE387  LEU408  LEU417 
 MET419  LEU428  TYR466  MET469  ASN472  ASP496  VAL498  LEU499  MET503  HIS524 
 TRP525 

> <Gold.Protein.RotatedAtoms>
   -2.3853  -30.0542  -30.6940 H   0  0  0  0  0  0  0  0  0  0  0  0  # atno 3525 bound_to 925 
  -12.0449  -23.8405  -31.3137 H   0  0  0  0  0  0  0  0  0  0  0  0  # atno 3677 bound_to 1070
   -9.2993  -36.3255  -33.4306 H   0  0  0  0  0  0  0  0  0  0  0  0  # atno 3781 bound_to 1176
  -14.3211  -28.0529  -37.8544 H   0  0  0  0  0  0  0  0  0  0  0  0  # atno 3847 bound_to 1247
  -13.6876  -25.0038  -40.1905 H   0  0  0  0  0  0  0  0  0  0  0  0  # atno 4507 bound_to 1931
   -2.9055  -32.5595  -36.6808 H   0  0  0  0  0  0  0  0  0  0  0  0  # atno 4531 bound_to 1957
  -10.1502  -37.2705  -32.4152 LP  0  0  0  0  0  0  0  0  0  0  0  0  # atno 5205 bound_to 1176
  -10.6664  -37.0410  -33.9474 LP  0  0  0  0  0  0  0  0  0  0  0  0  # atno 5206 bound_to 1176
  -15.5017  -28.8610  -37.0791 LP  0  0  0  0  0  0  0  0  0  0  0  0  # atno 5215 bound_to 1247
  -15.7478  -27.3234  -37.5708 LP  0  0  0  0  0  0  0  0  0  0  0  0  # atno 5216 bound_to 1247
  -12.6613  -23.7720  -39.9124 LP  0  0  0  0  0  0  0  0  0  0  0  0  # atno 5217 bound_to 1931
  -12.8414  -24.9553  -38.8014 LP  0  0  0  0  0  0  0  0  0  0  0  0  # atno 5218 bound_to 1931
  -11.1579  -22.5134  -30.9970 LP  0  0  0  0  0  0  0  0  0  0  0  0  # atno 5224 bound_to 1070
  -12.6506  -22.6738  -30.3544 LP  0  0  0  0  0  0  0  0  0  0  0  0  # atno 5225 bound_to 1070

$$$$
IA_91.cdx|SeH_inactivess_minimized|sdf|170|dock3
  -GOLD-   41821 8253D 1   1.00000     0.00000

 49 48  0  0  0  0  0  0  0  0  1 V2000
  -22.5256  -24.9888  -34.9971 C   0  0  0  0  0  0  0  0  0  0  0  0
  -21.6253  -24.6730  -35.7261 C   0  0  0  0  0  0  0  0  0  0  0  0
  -18.0757  -24.7390  -36.7987 C   0  0  0  0  0  0  0  0  0  0  0  0
   -3.9104  -32.5181  -34.7037 C   0  0  0  0  0  0  0  0  0  0  0  0
  -20.5233  -24.2907  -36.6124 C   0  0  0  0  0  0  0  0  0  0  0  0
   -4.5169  -31.1686  -35.0541 C   0  0  0  0  0  0  0  0  0  0  0  0
   -6.0246  -31.1482  -34.7984 C   0  0  0  0  0  0  0  0  0  0  0  0
   -6.6277  -29.7874  -35.1532 C   0  0  0  0  0  0  0  0  0  0  0  0
   -8.0953  -29.6451  -34.7389 C   0  0  0  0  0  0  0  0  0  0  0  0
   -8.8060  -28.4672  -35.4108 C   0  0  0  0  0  0  0  0  0  0  0  0
  -10.2663  -28.3749  -34.9597 C   0  0  0  0  0  0  0  0  0  0  0  0
  -11.0842  -27.3490  -35.7496 C   0  0  0  0  0  0  0  0  0  0  0  0
  -12.4827  -27.1132  -35.1748 C   0  0  0  0  0  0  0  0  0  0  0  0
  -13.3254  -26.2396  -36.1081 C   0  0  0  0  0  0  0  0  0  0  0  0
  -14.7820  -26.1720  -35.6387 C   0  0  0  0  0  0  0  0  0  0  0  0
  -15.6646  -25.3086  -36.5416 C   0  0  0  0  0  0  0  0  0  0  0  0
  -19.2561  -24.7111  -36.0609 N   0  0  0  0  0  0  0  0  0  0  0  0
  -17.0197  -25.1823  -36.0194 N   0  0  0  0  0  0  0  0  0  0  0  0
  -17.9862  -24.4128  -37.9815 O   0  0  0  0  0  0  0  0  0  0  0  0
  -23.3244  -25.2691  -34.3511 H   0  0  0  0  0  0  0  0  0  0  0  0
   -2.8228  -32.4871  -34.8225 H   0  0  0  0  0  0  0  0  0  0  0  0
   -4.1312  -32.7901  -33.6666 H   0  0  0  0  0  0  0  0  0  0  0  0
   -4.3013  -33.3050  -35.3565 H   0  0  0  0  0  0  0  0  0  0  0  0
  -20.5091  -23.2057  -36.7553 H   0  0  0  0  0  0  0  0  0  0  0  0
  -20.6570  -24.7495  -37.5971 H   0  0  0  0  0  0  0  0  0  0  0  0
   -4.3142  -30.9469  -36.1083 H   0  0  0  0  0  0  0  0  0  0  0  0
   -4.0281  -30.3889  -34.4585 H   0  0  0  0  0  0  0  0  0  0  0  0
   -6.2114  -31.3790  -33.7436 H   0  0  0  0  0  0  0  0  0  0  0  0
   -6.5085  -31.9317  -35.3937 H   0  0  0  0  0  0  0  0  0  0  0  0
   -6.0360  -28.9878  -34.6911 H   0  0  0  0  0  0  0  0  0  0  0  0
   -6.5641  -29.6399  -36.2385 H   0  0  0  0  0  0  0  0  0  0  0  0
   -8.1610  -29.5452  -33.6487 H   0  0  0  0  0  0  0  0  0  0  0  0
   -8.6159  -30.5743  -35.0026 H   0  0  0  0  0  0  0  0  0  0  0  0
   -8.2950  -27.5302  -35.1641 H   0  0  0  0  0  0  0  0  0  0  0  0
   -8.7562  -28.5923  -36.4980 H   0  0  0  0  0  0  0  0  0  0  0  0
  -10.7411  -29.3607  -35.0369 H   0  0  0  0  0  0  0  0  0  0  0  0
  -10.2960  -28.0922  -33.9000 H   0  0  0  0  0  0  0  0  0  0  0  0
  -11.1624  -27.6682  -36.7960 H   0  0  0  0  0  0  0  0  0  0  0  0
  -10.5328  -26.4005  -35.7496 H   0  0  0  0  0  0  0  0  0  0  0  0
  -12.4002  -26.6296  -34.1941 H   0  0  0  0  0  0  0  0  0  0  0  0
  -12.9935  -28.0708  -35.0242 H   0  0  0  0  0  0  0  0  0  0  0  0
  -12.9048  -25.2272  -36.1421 H   0  0  0  0  0  0  0  0  0  0  0  0
  -13.2761  -26.6459  -37.1251 H   0  0  0  0  0  0  0  0  0  0  0  0
  -15.1973  -27.1857  -35.5740 H   0  0  0  0  0  0  0  0  0  0  0  0
  -14.8141  -25.7545  -34.6245 H   0  0  0  0  0  0  0  0  0  0  0  0
  -15.2220  -24.3103  -36.6290 H   0  0  0  0  0  0  0  0  0  0  0  0
  -15.7044  -25.7384  -37.5483 H   0  0  0  0  0  0  0  0  0  0  0  0
  -19.2247  -25.0004  -35.0882 H   0  0  0  0  0  0  0  0  0  0  0  0
  -17.1658  -25.3869  -35.0425 H   0  0  0  0  0  0  0  0  0  0  0  0
  1  2  3  0  0  0  0
  2  5  1  0  0  0  0
  3 17  1  0  0  0  0
  3 18  1  0  0  0  0
  3 19  2  0  0  0  0
  4  6  1  0  0  0  0
  5 17  1  0  0  0  0
  6  7  1  0  0  0  0
  7  8  1  0  0  0  0
  8  9  1  0  0  0  0
  9 10  1  0  0  0  0
 10 11  1  0  0  0  0
 11 12  1  0  0  0  0
 12 13  1  0  0  0  0
 13 14  1  0  0  0  0
 14 15  1  0  0  0  0
 15 16  1  0  0  0  0
 16 18  1  0  0  0  0
  1 20  1  0  0  0  0
  4 21  1  0  0  0  0
  4 22  1  0  0  0  0
  4 23  1  0  0  0  0
  5 24  1  0  0  0  0
  5 25  1  0  0  0  0
  6 26  1  0  0  0  0
  6 27  1  0  0  0  0
  7 28  1  0  0  0  0
  7 29  1  0  0  0  0
  8 30  1  0  0  0  0
  8 31  1  0  0  0  0
  9 32  1  0  0  0  0
  9 33  1  0  0  0  0
 10 34  1  0  0  0  0
 10 35  1  0  0  0  0
 11 36  1  0  0  0  0
 11 37  1  0  0  0  0
 12 38  1  0  0  0  0
 12 39  1  0  0  0  0
 13 40  1  0  0  0  0
 13 41  1  0  0  0  0
 14 42  1  0  0  0  0
 14 43  1  0  0  0  0
 15 44  1  0  0  0  0
 15 45  1  0  0  0  0
 16 46  1  0  0  0  0
 16 47  1  0  0  0  0
 17 48  1  0  0  0  0
 18 49  1  0  0  0  0
M  END
> <Name>
IA_91.cdx

> <SourceTag>
IA_91

> <Gold.Version>
5.2

> <Gold.Id.Protein>
6HGV|6HGV_protein|mol2

> <Gold.Goldscore.Fitness>
61.6293

> <Gold.Goldscore.Internal.Vdw>
-4.3798

> <Gold.Goldscore.Internal.Torsion>
-2.4321

> <Gold.Goldscore.External.Vdw>
45.1446

> <Gold.Goldscore.Internal.HBond>
0.0000

> <Gold.Goldscore.External.HBond>
0.7007

> <Gold.Goldscore.Internal.Correction>
-5.6667

> <Gold.Goldscore.Hbonds>
donor molecule, donor type, donor heavy atom, donor atom, acceptor molecule, acceptor atom, score
      L1  H    17    48       P1  2185  0.12

> <Gold.Goldscore.Internal.Vdw.Weighted>
-4.3798

> <Gold.Goldscore.Internal.Torsion.Weighted>
-2.4321

> <Gold.Goldscore.External.Vdw.Weighted>
62.0738

> <Gold.Goldscore.Internal.HBond.Weighted>
0.0000

> <Gold.Goldscore.External.HBond.Weighted>
0.7007

> <Gold.Goldscore.Internal.Correction.Weighted>
-5.6667

> <Gold.Protein.RotatedTorsions>
[ 3781 1176 1175 1172 ] final  -26.75 input   60.00 | X-H torsion
[ 3847 1247 1246 1244 ] final   96.35 input   60.00 | X-H torsion
[ 4507 1931 1930 1928 ] final   -8.91 input   60.00 | X-H torsion
[ 3677 1070 1069 1066 ] final -121.37 input   60.00 | X-H torsion
[ 3525  925  924  922 ] final   28.82 input   59.99 | X-H torsion
[ 4531 1957 1955 1953 ] final  126.80 input   60.00 | X-H torsion

> <Gold.Protein.ActiveResidues>
 PHE267  PRO268  MET310  ASP335  TRP336  MET339  TYR343  THR360  PRO361  ILE363 
 PRO371  SER374  ILE375  ASN378  PHE381  TYR383  GLN384  PHE387  LEU408  LEU417 
 MET419  LEU428  TYR466  MET469  ASN472  ASP496  VAL498  LEU499  MET503  HIS524 
 TRP525 

> <Gold.Protein.RotatedAtoms>
   -3.2618  -29.6645  -30.7767 H   0  0  0  0  0  0  0  0  0  0  0  0  # atno 3525 bound_to 925 
  -11.4461  -23.5644  -31.4508 H   0  0  0  0  0  0  0  0  0  0  0  0  # atno 3677 bound_to 1070
  -10.6218  -37.0000  -33.9855 H   0  0  0  0  0  0  0  0  0  0  0  0  # atno 3781 bound_to 1176
  -14.4267  -28.6153  -37.5978 H   0  0  0  0  0  0  0  0  0  0  0  0  # atno 3847 bound_to 1247
  -13.3478  -25.3529  -39.1933 H   0  0  0  0  0  0  0  0  0  0  0  0  # atno 4507 bound_to 1931
   -2.2710  -34.0631  -36.8274 H   0  0  0  0  0  0  0  0  0  0  0  0  # atno 4531 bound_to 1957
   -9.2749  -36.3313  -33.3636 LP  0  0  0  0  0  0  0  0  0  0  0  0  # atno 5205 bound_to 1176
  -10.2098  -37.3009  -32.4402 LP  0  0  0  0  0  0  0  0  0  0  0  0  # atno 5206 bound_to 1176
  -15.9537  -28.4201  -37.0704 LP  0  0  0  0  0  0  0  0  0  0  0  0  # atno 5215 bound_to 1247
  -15.1894  -27.1980  -37.8379 LP  0  0  0  0  0  0  0  0  0  0  0  0  # atno 5216 bound_to 1247
  -13.4152  -24.3659  -40.4853 LP  0  0  0  0  0  0  0  0  0  0  0  0  # atno 5217 bound_to 1931
  -12.4298  -24.0099  -39.2328 LP  0  0  0  0  0  0  0  0  0  0  0  0  # atno 5218 bound_to 1931
  -11.5974  -22.1882  -30.5957 LP  0  0  0  0  0  0  0  0  0  0  0  0  # atno 5224 bound_to 1070
  -12.8141  -23.2771  -30.6176 LP  0  0  0  0  0  0  0  0  0  0  0  0  # atno 5225 bound_to 1070

$$$$
IA_118.cdx|SeH_inactivess_minimized|sdf|20|dock1
  -GOLD-   4172118563D 1   1.00000     0.00000

 24 24  0  0  0  0  0  0  0  0  1 V2000
   -9.2078  -27.0416  -34.8440 C   0  0  0  0  0  0  0  0  0  0  0  0
   -9.6441  -25.8506  -34.2638 C   0  0  0  0  0  0  0  0  0  0  0  0
   -9.7865  -27.4926  -36.0303 C   0  0  0  0  0  0  0  0  0  0  0  0
  -10.6592  -25.1104  -34.8701 C   0  0  0  0  0  0  0  0  0  0  0  0
  -10.8017  -26.7525  -36.6365 C   0  0  0  0  0  0  0  0  0  0  0  0
  -11.2380  -25.5614  -36.0564 C   0  0  0  0  0  0  0  0  0  0  0  0
  -13.3267  -25.2845  -37.4497 C   0  0  0  0  0  0  0  0  0  0  0  0
  -16.3924  -23.4641  -38.2901 C   0  0  0  0  0  0  0  0  0  0  0  0
  -15.3047  -24.3994  -38.6960 C   0  0  0  0  0  0  0  0  0  0  0  0
  -12.2532  -24.8208  -36.6627 N   0  0  0  0  0  0  0  0  0  0  0  0
  -14.1302  -24.2211  -37.8735 N   0  0  0  0  0  0  0  0  0  0  0  0
  -13.5543  -26.4560  -37.7417 O   0  0  0  0  0  0  0  0  0  0  0  0
   -8.4168  -27.6178  -34.3726 H   0  0  0  0  0  0  0  0  0  0  0  0
   -9.1931  -25.4987  -33.3407 H   0  0  0  0  0  0  0  0  0  0  0  0
   -9.4458  -28.4196  -36.4824 H   0  0  0  0  0  0  0  0  0  0  0  0
  -10.9910  -24.1836  -34.4089 H   0  0  0  0  0  0  0  0  0  0  0  0
  -11.2453  -27.1138  -37.5610 H   0  0  0  0  0  0  0  0  0  0  0  0
  -16.6880  -23.6365  -37.2495 H   0  0  0  0  0  0  0  0  0  0  0  0
  -16.0752  -22.4222  -38.4075 H   0  0  0  0  0  0  0  0  0  0  0  0
  -17.2740  -23.6231  -38.9226 H   0  0  0  0  0  0  0  0  0  0  0  0
  -15.0142  -24.2216  -39.7357 H   0  0  0  0  0  0  0  0  0  0  0  0
  -15.6286  -25.4392  -38.5934 H   0  0  0  0  0  0  0  0  0  0  0  0
  -12.2274  -23.8050  -36.5252 H   0  0  0  0  0  0  0  0  0  0  0  0
  -13.8763  -23.2800  -37.5901 H   0  0  0  0  0  0  0  0  0  0  0  0
  1  2  2  0  0  0  0
  1  3  1  0  0  0  0
  2  4  1  0  0  0  0
  3  5  2  0  0  0  0
  4  6  2  0  0  0  0
  5  6  1  0  0  0  0
  6 10  1  0  0  0  0
  7 10  1  0  0  0  0
  7 11  1  0  0  0  0
  7 12  2  0  0  0  0
  8  9  1  0  0  0  0
  9 11  1  0  0  0  0
  1 13  1  0  0  0  0
  2 14  1  0  0  0  0
  3 15  1  0  0  0  0
  4 16  1  0  0  0  0
  5 17  1  0  0  0  0
  8 18  1  0  0  0  0
  8 19  1  0  0  0  0
  8 20  1  0  0  0  0
  9 21  1  0  0  0  0
  9 22  1  0  0  0  0
 10 23  1  0  0  0  0
 11 24  1  0  0  0  0
M  END
> <Name>
IA_118.cdx

> <SourceTag>
IA_118

> <Gold.Version>
5.2

> <Gold.Id.Protein>
6HGV|6HGV_protein|mol2

> <Gold.Goldscore.Fitness>
48.1362

> <Gold.Goldscore.Internal.Vdw>
-1.5605

> <Gold.Goldscore.Internal.Torsion>
-2.2157

> <Gold.Goldscore.External.Vdw>
30.6556

> <Gold.Goldscore.Internal.HBond>
0.0000

> <Gold.Goldscore.External.HBond>
6.5888

> <Gold.Goldscore.Internal.Correction>
-3.1720

> <Gold.Goldscore.Hbonds>
donor molecule, donor type, donor heavy atom, donor atom, acceptor molecule, acceptor atom, score
      P1  H  1247  3847       L1    12  0.45
      L1  H    10    23       P1   854  0.62
      L1  H    11    24       P1   854  0.33

> <Gold.Goldscore.Internal.Vdw.Weighted>
-1.5605

> <Gold.Goldscore.Internal.Torsion.Weighted>
-2.2157

> <Gold.Goldscore.External.Vdw.Weighted>
42.1515

> <Gold.Goldscore.Internal.HBond.Weighted>
0.0000

> <Gold.Goldscore.External.HBond.Weighted>
6.5888

> <Gold.Goldscore.Internal.Correction.Weighted>
-3.1720

> <Gold.Protein.RotatedTorsions>
[ 3781 1176 1175 1172 ] final -172.36 input   60.00 | X-H torsion
[ 3847 1247 1246 1244 ] final  172.16 input   60.00 | X-H torsion
[ 4507 1931 1930 1928 ] final  151.69 input   60.00 | X-H torsion
[ 3677 1070 1069 1066 ] final -127.38 input   60.00 | X-H torsion
[ 3525  925  924  922 ] final   -6.32 input   59.99 | X-H torsion
[ 4531 1957 1955 1953 ] final   92.47 input   60.00 | X-H torsion

> <Gold.Protein.ActiveResidues>
 PHE267  PRO268  MET310  ASP335  TRP336  MET339  TYR343  THR360  PRO361  ILE363 
 PRO371  SER374  ILE375  ASN378  PHE381  TYR383  GLN384  PHE387  LEU408  LEU417 
 MET419  LEU428  TYR466  MET469  ASN472  ASP496  VAL498  LEU499  MET503  HIS524 
 TRP525 

> <Gold.Protein.RotatedAtoms>
   -3.6503  -29.5307  -30.3884 H   0  0  0  0  0  0  0  0  0  0  0  0  # atno 3525 bound_to 925 
  -11.3758  -23.4960  -31.4464 H   0  0  0  0  0  0  0  0  0  0  0  0  # atno 3677 bound_to 1070
   -9.2499  -36.4651  -32.9699 H   0  0  0  0  0  0  0  0  0  0  0  0  # atno 3781 bound_to 1176
  -14.5771  -27.5317  -37.9533 H   0  0  0  0  0  0  0  0  0  0  0  0  # atno 3847 bound_to 1247
  -12.6082  -23.7810  -39.8165 H   0  0  0  0  0  0  0  0  0  0  0  0  # atno 4507 bound_to 1931
   -2.7711  -33.8497  -36.7287 H   0  0  0  0  0  0  0  0  0  0  0  0  # atno 4531 bound_to 1957
  -10.5304  -37.4259  -32.6775 LP  0  0  0  0  0  0  0  0  0  0  0  0  # atno 5205 bound_to 1176
  -10.3360  -36.7450  -34.1490 LP  0  0  0  0  0  0  0  0  0  0  0  0  # atno 5206 bound_to 1176
  -14.9452  -28.9574  -37.2607 LP  0  0  0  0  0  0  0  0  0  0  0  0  # atno 5215 bound_to 1247
  -16.0464  -27.7519  -37.2896 LP  0  0  0  0  0  0  0  0  0  0  0  0  # atno 5216 bound_to 1247
  -12.9125  -25.0357  -38.8260 LP  0  0  0  0  0  0  0  0  0  0  0  0  # atno 5217 bound_to 1931
  -13.6774  -24.9230  -40.2644 LP  0  0  0  0  0  0  0  0  0  0  0  0  # atno 5218 bound_to 1931
  -11.6822  -22.1751  -30.5465 LP  0  0  0  0  0  0  0  0  0  0  0  0  # atno 5224 bound_to 1070
  -12.8001  -23.3590  -30.6712 LP  0  0  0  0  0  0  0  0  0  0  0  0  # atno 5225 bound_to 1070

$$$$
IA_81.cdx|SeH_inactivess_minimized|sdf|159|dock1
  -GOLD-   4172122173D 1   1.00000     0.00000

 38 37  0  0  0  0  0  0  0  0  1 V2000
  -10.0175  -30.2928  -34.7801 C   0  0  0  0  0  0  0  0  0  0  0  0
   -8.8142  -33.1519  -35.6085 C   0  0  0  0  0  0  0  0  0  0  0  0
  -11.1756  -25.3270  -33.7593 C   0  0  0  0  0  0  0  0  0  0  0  0
  -11.2450  -25.9243  -36.1657 C   0  0  0  0  0  0  0  0  0  0  0  0
   -9.3441  -26.7173  -34.7659 C   0  0  0  0  0  0  0  0  0  0  0  0
  -11.2148  -28.0855  -31.9857 C   0  0  0  0  0  0  0  0  0  0  0  0
  -12.4845  -29.7807  -33.2876 C   0  0  0  0  0  0  0  0  0  0  0  0
  -11.7081  -27.7315  -34.4978 C   0  0  0  0  0  0  0  0  0  0  0  0
   -8.3425  -31.7674  -35.8968 C   0  0  0  0  0  0  0  0  0  0  0  0
  -10.8552  -26.4502  -34.7627 C   0  0  0  0  0  0  0  0  0  0  0  0
  -11.3513  -28.7370  -33.3643 C   0  0  0  0  0  0  0  0  0  0  0  0
   -8.7446  -30.8519  -34.8540 N   0  0  0  0  0  0  0  0  0  0  0  0
  -10.1270  -29.4527  -33.6810 N   0  0  0  0  0  0  0  0  0  0  0  0
  -10.9232  -30.5153  -35.5825 O   0  0  0  0  0  0  0  0  0  0  0  0
   -8.4078  -33.5131  -34.6575 H   0  0  0  0  0  0  0  0  0  0  0  0
   -9.9084  -33.1919  -35.5721 H   0  0  0  0  0  0  0  0  0  0  0  0
   -8.4767  -33.8315  -36.4001 H   0  0  0  0  0  0  0  0  0  0  0  0
  -10.8564  -25.5669  -32.7437 H   0  0  0  0  0  0  0  0  0  0  0  0
  -12.2495  -25.1111  -33.7346 H   0  0  0  0  0  0  0  0  0  0  0  0
  -10.6613  -24.3982  -34.0340 H   0  0  0  0  0  0  0  0  0  0  0  0
  -12.3271  -25.7681  -36.2426 H   0  0  0  0  0  0  0  0  0  0  0  0
  -10.9517  -26.6310  -36.9504 H   0  0  0  0  0  0  0  0  0  0  0  0
  -10.7546  -24.9687  -36.3848 H   0  0  0  0  0  0  0  0  0  0  0  0
   -8.9964  -27.0171  -33.7702 H   0  0  0  0  0  0  0  0  0  0  0  0
   -9.0729  -27.5255  -35.4517 H   0  0  0  0  0  0  0  0  0  0  0  0
   -8.7836  -25.8200  -35.0502 H   0  0  0  0  0  0  0  0  0  0  0  0
  -11.1940  -28.8437  -31.1932 H   0  0  0  0  0  0  0  0  0  0  0  0
  -12.0533  -27.4128  -31.7764 H   0  0  0  0  0  0  0  0  0  0  0  0
  -10.2789  -27.5277  -31.8898 H   0  0  0  0  0  0  0  0  0  0  0  0
  -12.7897  -30.1127  -34.2863 H   0  0  0  0  0  0  0  0  0  0  0  0
  -12.1716  -30.6644  -32.7186 H   0  0  0  0  0  0  0  0  0  0  0  0
  -13.3686  -29.3718  -32.7840 H   0  0  0  0  0  0  0  0  0  0  0  0
  -11.7270  -28.3099  -35.4343 H   0  0  0  0  0  0  0  0  0  0  0  0
  -12.7471  -27.4039  -34.3456 H   0  0  0  0  0  0  0  0  0  0  0  0
   -8.7657  -31.4065  -36.8392 H   0  0  0  0  0  0  0  0  0  0  0  0
   -7.2512  -31.7356  -35.9655 H   0  0  0  0  0  0  0  0  0  0  0  0
   -8.0660  -30.6043  -34.1405 H   0  0  0  0  0  0  0  0  0  0  0  0
   -9.3475  -29.3610  -33.0440 H   0  0  0  0  0  0  0  0  0  0  0  0
  1 12  1  0  0  0  0
  1 13  1  0  0  0  0
  1 14  2  0  0  0  0
  2  9  1  0  0  0  0
  3 10  1  0  0  0  0
  4 10  1  0  0  0  0
  5 10  1  0  0  0  0
  6 11  1  0  0  0  0
  7 11  1  0  0  0  0
  8 10  1  0  0  0  0
  8 11  1  0  0  0  0
  9 12  1  0  0  0  0
 11 13  1  0  0  0  0
  2 15  1  0  0  0  0
  2 16  1  0  0  0  0
  2 17  1  0  0  0  0
  3 18  1  0  0  0  0
  3 19  1  0  0  0  0
  3 20  1  0  0  0  0
  4 21  1  0  0  0  0
  4 22  1  0  0  0  0
  4 23  1  0  0  0  0
  5 24  1  0  0  0  0
  5 25  1  0  0  0  0
  5 26  1  0  0  0  0
  6 27  1  0  0  0  0
  6 28  1  0  0  0  0
  6 29  1  0  0  0  0
  7 30  1  0  0  0  0
  7 31  1  0  0  0  0
  7 32  1  0  0  0  0
  8 33  1  0  0  0  0
  8 34  1  0  0  0  0
  9 35  1  0  0  0  0
  9 36  1  0  0  0  0
 12 37  1  0  0  0  0
 13 38  1  0  0  0  0
M  END
> <Name>
IA_81.cdx

> <SourceTag>
IA_81

> <Gold.Version>
5.2

> <Gold.Id.Protein>
6HGV|6HGV_protein|mol2

> <Gold.Goldscore.Fitness>
39.8134

> <Gold.Goldscore.Internal.Vdw>
-4.7162

> <Gold.Goldscore.Internal.Torsion>
-2.7695

> <Gold.Goldscore.External.Vdw>
28.2586

> <Gold.Goldscore.Internal.HBond>
0.0000

> <Gold.Goldscore.External.HBond>
1.2428

> <Gold.Goldscore.Internal.Correction>
-7.2009

> <Gold.Goldscore.Hbonds>
donor molecule, donor type, donor heavy atom, donor atom, acceptor molecule, acceptor atom, score
      P1  H  1256  3854       L1    14  0.62

> <Gold.Goldscore.Internal.Vdw.Weighted>
-4.7162

> <Gold.Goldscore.Internal.Torsion.Weighted>
-2.7695

> <Gold.Goldscore.External.Vdw.Weighted>
38.8555

> <Gold.Goldscore.Internal.HBond.Weighted>
0.0000

> <Gold.Goldscore.External.HBond.Weighted>
1.2428

> <Gold.Goldscore.Internal.Correction.Weighted>
-7.2009

> <Gold.Protein.RotatedTorsions>
[ 3781 1176 1175 1172 ] final -134.77 input   60.00 | X-H torsion
[ 3847 1247 1246 1244 ] final   92.27 input   60.00 | X-H torsion
[ 4507 1931 1930 1928 ] final   22.36 input   60.00 | X-H torsion
[ 3677 1070 1069 1066 ] final -140.93 input   60.00 | X-H torsion
[ 3525  925  924  922 ] final   51.87 input   59.99 | X-H torsion
[ 4531 1957 1955 1953 ] final   26.66 input   60.00 | X-H torsion

> <Gold.Protein.ActiveResidues>
 PHE267  PRO268  MET310  ASP335  TRP336  MET339  TYR343  THR360  PRO361  ILE363 
 PRO371  SER374  ILE375  ASN378  PHE381  TYR383  GLN384  PHE387  LEU408  LEU417 
 MET419  LEU428  TYR466  MET469  ASN472  ASP496  VAL498  LEU499  MET503  HIS524 
 TRP525 

> <Gold.Protein.RotatedAtoms>
   -2.9266  -29.8021  -30.8699 H   0  0  0  0  0  0  0  0  0  0  0  0  # atno 3525 bound_to 925 
  -11.2417  -23.3235  -31.4141 H   0  0  0  0  0  0  0  0  0  0  0  0  # atno 3677 bound_to 1070
   -9.3452  -36.3129  -33.5459 H   0  0  0  0  0  0  0  0  0  0  0  0  # atno 3781 bound_to 1176
  -14.4598  -28.6637  -37.5663 H   0  0  0  0  0  0  0  0  0  0  0  0  # atno 3847 bound_to 1247
  -13.0133  -25.1345  -38.8850 H   0  0  0  0  0  0  0  0  0  0  0  0  # atno 4507 bound_to 1931
   -3.0639  -32.8782  -36.6562 H   0  0  0  0  0  0  0  0  0  0  0  0  # atno 4531 bound_to 1957
  -10.0440  -37.2116  -32.3831 LP  0  0  0  0  0  0  0  0  0  0  0  0  # atno 5205 bound_to 1176
  -10.7264  -37.1125  -33.8634 LP  0  0  0  0  0  0  0  0  0  0  0  0  # atno 5206 bound_to 1176
  -15.9833  -28.3609  -37.0814 LP  0  0  0  0  0  0  0  0  0  0  0  0  # atno 5215 bound_to 1247
  -15.1264  -27.2084  -37.8587 LP  0  0  0  0  0  0  0  0  0  0  0  0  # atno 5216 bound_to 1247
  -13.6406  -24.8004  -40.3488 LP  0  0  0  0  0  0  0  0  0  0  0  0  # atno 5217 bound_to 1931
  -12.5412  -23.7953  -39.6798 LP  0  0  0  0  0  0  0  0  0  0  0  0  # atno 5218 bound_to 1931
  -11.8827  -22.1796  -30.4505 LP  0  0  0  0  0  0  0  0  0  0  0  0  # atno 5224 bound_to 1070
  -12.7346  -23.5282  -30.7997 LP  0  0  0  0  0  0  0  0  0  0  0  0  # atno 5225 bound_to 1070

$$$$
IA_155.cdx|SeH_inactivess_minimized|sdf|56|dock10
  -GOLD-   4172119513D 1   1.00000     0.00000

 17 16  0  0  0  0  0  0  0  0  1 V2000
  -11.7183  -24.7787  -36.0759 C   0  0  0  0  0  0  0  0  0  0  0  0
  -14.3401  -26.2591  -35.7649 C   0  0  0  0  0  0  0  0  0  0  0  0
   -9.6117  -26.1202  -34.3374 C   0  0  0  0  0  0  0  0  0  0  0  0
  -13.0590  -26.4931  -36.5388 C   0  0  0  0  0  0  0  0  0  0  0  0
  -10.7827  -25.1892  -34.0991 C   0  0  0  0  0  0  0  0  0  0  0  0
  -12.4632  -25.1993  -36.8806 N   0  0  0  0  0  0  0  0  0  0  0  0
  -10.9707  -24.3444  -35.2810 N   0  0  0  0  0  0  0  0  0  0  0  0
  -15.0499  -25.6810  -36.3642 H   0  0  0  0  0  0  0  0  0  0  0  0
  -14.8124  -27.2091  -35.4934 H   0  0  0  0  0  0  0  0  0  0  0  0
  -14.1427  -25.7086  -34.8389 H   0  0  0  0  0  0  0  0  0  0  0  0
   -8.6918  -25.5478  -34.4908 H   0  0  0  0  0  0  0  0  0  0  0  0
   -9.4626  -26.7884  -33.4827 H   0  0  0  0  0  0  0  0  0  0  0  0
   -9.7811  -26.7434  -35.2218 H   0  0  0  0  0  0  0  0  0  0  0  0
  -13.2662  -27.0526  -37.4562 H   0  0  0  0  0  0  0  0  0  0  0  0
  -12.3517  -27.0721  -35.9368 H   0  0  0  0  0  0  0  0  0  0  0  0
  -10.5940  -24.5574  -33.2258 H   0  0  0  0  0  0  0  0  0  0  0  0
  -11.6948  -25.7653  -33.9144 H   0  0  0  0  0  0  0  0  0  0  0  0
  1  6  2  0  0  0  0
  1  7  2  0  0  0  0
  2  4  1  0  0  0  0
  3  5  1  0  0  0  0
  4  6  1  0  0  0  0
  5  7  1  0  0  0  0
  2  8  1  0  0  0  0
  2  9  1  0  0  0  0
  2 10  1  0  0  0  0
  3 11  1  0  0  0  0
  3 12  1  0  0  0  0
  3 13  1  0  0  0  0
  4 14  1  0  0  0  0
  4 15  1  0  0  0  0
  5 16  1  0  0  0  0
  5 17  1  0  0  0  0
M  END
> <Name>
IA_155.cdx

> <SourceTag>
IA_155

> <Gold.Version>
5.2

> <Gold.Id.Protein>
6HGV|6HGV_protein|mol2

> <Gold.Goldscore.Fitness>
33.2506

> <Gold.Goldscore.Internal.Vdw>
-2.5940

> <Gold.Goldscore.Internal.Torsion>
-1.1664

> <Gold.Goldscore.External.Vdw>
22.8006

> <Gold.Goldscore.Internal.HBond>
0.0000

> <Gold.Goldscore.External.HBond>
1.9096

> <Gold.Goldscore.Internal.Correction>
-3.7506

> <Gold.Goldscore.Hbonds>
donor molecule, donor type, donor heavy atom, donor atom, acceptor molecule, acceptor atom, score
      P1  H  1931  4507       L1     6  0.95

> <Gold.Goldscore.Internal.Vdw.Weighted>
-2.5940

> <Gold.Goldscore.Internal.Torsion.Weighted>
-1.1664

> <Gold.Goldscore.External.Vdw.Weighted>
31.3508

> <Gold.Goldscore.Internal.HBond.Weighted>
0.0000

> <Gold.Goldscore.External.HBond.Weighted>
1.9096

> <Gold.Goldscore.Internal.Correction.Weighted>
-3.7506

> <Gold.Protein.RotatedTorsions>
[ 3781 1176 1175 1172 ] final  -95.24 input   60.00 | X-H torsion
[ 3847 1247 1246 1244 ] final   47.27 input   60.00 | X-H torsion
[ 4507 1931 1930 1928 ] final   38.40 input   60.00 | X-H torsion
[ 3677 1070 1069 1066 ] final  -92.08 input   60.00 | X-H torsion
[ 3525  925  924  922 ] final  -35.35 input   59.99 | X-H torsion
[ 4531 1957 1955 1953 ] final   -0.15 input   60.00 | X-H torsion

> <Gold.Protein.ActiveResidues>
 PHE267  PRO268  MET310  ASP335  TRP336  MET339  TYR343  THR360  PRO361  ILE363 
 PRO371  SER374  ILE375  ASN378  PHE381  TYR383  GLN384  PHE387  LEU408  LEU417 
 MET419  LEU428  TYR466  MET469  ASN472  ASP496  VAL498  LEU499  MET503  HIS524 
 TRP525 

> <Gold.Protein.RotatedAtoms>
   -3.7720  -29.5191  -29.9354 H   0  0  0  0  0  0  0  0  0  0  0  0  # atno 3525 bound_to 925 
  -11.8518  -23.7992  -31.3850 H   0  0  0  0  0  0  0  0  0  0  0  0  # atno 3677 bound_to 1070
   -9.7522  -36.4062  -34.0218 H   0  0  0  0  0  0  0  0  0  0  0  0  # atno 3781 bound_to 1176
  -15.0207  -28.9599  -37.2328 H   0  0  0  0  0  0  0  0  0  0  0  0  # atno 3847 bound_to 1247
  -12.8411  -24.9536  -38.8083 H   0  0  0  0  0  0  0  0  0  0  0  0  # atno 4507 bound_to 1931
   -2.8553  -32.4989  -36.6893 H   0  0  0  0  0  0  0  0  0  0  0  0  # atno 4531 bound_to 1957
   -9.5336  -36.8391  -32.4685 LP  0  0  0  0  0  0  0  0  0  0  0  0  # atno 5205 bound_to 1176
  -10.8269  -37.3911  -33.2987 LP  0  0  0  0  0  0  0  0  0  0  0  0  # atno 5206 bound_to 1176
  -16.0249  -27.6827  -37.3246 LP  0  0  0  0  0  0  0  0  0  0  0  0  # atno 5215 bound_to 1247
  -14.5200  -27.5884  -37.9513 LP  0  0  0  0  0  0  0  0  0  0  0  0  # atno 5216 bound_to 1247
  -13.6938  -25.0058  -40.1932 LP  0  0  0  0  0  0  0  0  0  0  0  0  # atno 5217 bound_to 1931
  -12.6615  -23.7720  -39.9126 LP  0  0  0  0  0  0  0  0  0  0  0  0  # atno 5218 bound_to 1931
  -11.2556  -22.3752  -30.8702 LP  0  0  0  0  0  0  0  0  0  0  0  0  # atno 5224 bound_to 1070
  -12.7473  -22.8536  -30.4093 LP  0  0  0  0  0  0  0  0  0  0  0  0  # atno 5225 bound_to 1070

$$$$
IA_210.cdx|SeH_inactivess_minimized|sdf|108|dock9
  -GOLD-   4172120563D 1   1.00000     0.00000

 41 42  0  0  0  0  0  0  0  0  1 V2000
   -8.3537  -32.1573  -34.9223 C   0  0  0  0  0  0  0  0  0  0  0  0
   -9.3734  -31.3894  -34.3602 C   0  0  0  0  0  0  0  0  0  0  0  0
   -7.2373  -31.5336  -35.4796 C   0  0  0  0  0  0  0  0  0  0  0  0
   -9.2770  -29.9978  -34.3554 C   0  0  0  0  0  0  0  0  0  0  0  0
   -7.1409  -30.1421  -35.4748 C   0  0  0  0  0  0  0  0  0  0  0  0
   -9.4044  -26.0351  -34.6424 C   0  0  0  0  0  0  0  0  0  0  0  0
  -10.0981  -27.7961  -36.1441 C   0  0  0  0  0  0  0  0  0  0  0  0
  -10.5465  -25.3050  -34.9711 C   0  0  0  0  0  0  0  0  0  0  0  0
  -11.2402  -27.0659  -36.4728 C   0  0  0  0  0  0  0  0  0  0  0  0
   -8.1606  -29.3742  -34.9126 C   0  0  0  0  0  0  0  0  0  0  0  0
   -9.1802  -27.2807  -35.2290 C   0  0  0  0  0  0  0  0  0  0  0  0
  -11.4644  -25.8203  -35.8862 C   0  0  0  0  0  0  0  0  0  0  0  0
  -17.4042  -25.1570  -36.9323 C   0  0  0  0  0  0  0  0  0  0  0  0
  -19.4856  -24.4577  -38.8133 C   0  0  0  0  0  0  0  0  0  0  0  0
  -14.9734  -24.9788  -36.4224 C   0  0  0  0  0  0  0  0  0  0  0  0
  -19.5835  -25.5576  -37.7778 C   0  0  0  0  0  0  0  0  0  0  0  0
  -13.7392  -25.8482  -36.5794 C   0  0  0  0  0  0  0  0  0  0  0  0
  -16.1262  -25.6748  -36.9458 N   0  0  0  0  0  0  0  0  0  0  0  0
  -17.7289  -24.0619  -36.4851 O   0  0  0  0  0  0  0  0  0  0  0  0
   -8.0651  -27.9927  -34.9096 O   0  0  0  0  0  0  0  0  0  0  0  0
  -12.5863  -25.1028  -36.2092 O   0  0  0  0  0  0  0  0  0  0  0  0
  -18.2692  -26.0519  -37.4967 O   0  0  0  0  0  0  0  0  0  0  0  0
   -8.4283  -33.2408  -34.9258 H   0  0  0  0  0  0  0  0  0  0  0  0
  -10.2429  -31.8749  -33.9263 H   0  0  0  0  0  0  0  0  0  0  0  0
   -6.4435  -32.1323  -35.9170 H   0  0  0  0  0  0  0  0  0  0  0  0
  -10.0756  -29.4054  -33.9172 H   0  0  0  0  0  0  0  0  0  0  0  0
   -6.2698  -29.6617  -35.9120 H   0  0  0  0  0  0  0  0  0  0  0  0
   -8.6918  -25.6276  -33.9307 H   0  0  0  0  0  0  0  0  0  0  0  0
   -9.9280  -28.7655  -36.6047 H   0  0  0  0  0  0  0  0  0  0  0  0
  -10.7166  -24.3359  -34.5101 H   0  0  0  0  0  0  0  0  0  0  0  0
  -11.9517  -27.4722  -37.1864 H   0  0  0  0  0  0  0  0  0  0  0  0
  -18.8282  -24.7534  -39.6357 H   0  0  0  0  0  0  0  0  0  0  0  0
  -20.4745  -24.2201  -39.2190 H   0  0  0  0  0  0  0  0  0  0  0  0
  -19.0967  -23.5380  -38.3637 H   0  0  0  0  0  0  0  0  0  0  0  0
  -15.1627  -24.7450  -35.3699 H   0  0  0  0  0  0  0  0  0  0  0  0
  -14.8555  -24.0456  -36.9812 H   0  0  0  0  0  0  0  0  0  0  0  0
  -20.1980  -26.3824  -38.1510 H   0  0  0  0  0  0  0  0  0  0  0  0
  -20.0219  -25.1749  -36.8513 H   0  0  0  0  0  0  0  0  0  0  0  0
  -13.6245  -26.1508  -37.6250 H   0  0  0  0  0  0  0  0  0  0  0  0
  -13.7955  -26.7441  -35.9526 H   0  0  0  0  0  0  0  0  0  0  0  0
  -15.9875  -26.5975  -37.3463 H   0  0  0  0  0  0  0  0  0  0  0  0
  1  2  2  0  0  0  0
  1  3  1  0  0  0  0
  2  4  1  0  0  0  0
  3  5  2  0  0  0  0
  4 10  2  0  0  0  0
  5 10  1  0  0  0  0
  6  8  1  0  0  0  0
  6 11  2  0  0  0  0
  7  9  2  0  0  0  0
  7 11  1  0  0  0  0
  8 12  2  0  0  0  0
  9 12  1  0  0  0  0
 10 20  1  0  0  0  0
 11 20  1  0  0  0  0
 12 21  1  0  0  0  0
 13 18  1  0  0  0  0
 13 19  2  0  0  0  0
 13 22  1  0  0  0  0
 14 16  1  0  0  0  0
 15 17  1  0  0  0  0
 15 18  1  0  0  0  0
 16 22  1  0  0  0  0
 17 21  1  0  0  0  0
  1 23  1  0  0  0  0
  2 24  1  0  0  0  0
  3 25  1  0  0  0  0
  4 26  1  0  0  0  0
  5 27  1  0  0  0  0
  6 28  1  0  0  0  0
  7 29  1  0  0  0  0
  8 30  1  0  0  0  0
  9 31  1  0  0  0  0
 14 32  1  0  0  0  0
 14 33  1  0  0  0  0
 14 34  1  0  0  0  0
 15 35  1  0  0  0  0
 15 36  1  0  0  0  0
 16 37  1  0  0  0  0
 16 38  1  0  0  0  0
 17 39  1  0  0  0  0
 17 40  1  0  0  0  0
 18 41  1  0  0  0  0
M  END
> <Name>
IA_210.cdx

> <SourceTag>
IA_210

> <Gold.Version>
5.2

> <Gold.Id.Protein>
6HGV|6HGV_protein|mol2

> <Gold.Goldscore.Fitness>
57.3029

> <Gold.Goldscore.Internal.Vdw>
-6.1665

> <Gold.Goldscore.Internal.Torsion>
-4.8503

> <Gold.Goldscore.External.Vdw>
40.7069

> <Gold.Goldscore.Internal.HBond>
0.0000

> <Gold.Goldscore.External.HBond>
3.4193

> <Gold.Goldscore.Internal.Correction>
-8.9284

> <Gold.Goldscore.Hbonds>
donor molecule, donor type, donor heavy atom, donor atom, acceptor molecule, acceptor atom, score
      P1  H  1931  4507       L1    21  0.75
      L1  H    18    41       P1  1247  0.96

> <Gold.Goldscore.Internal.Vdw.Weighted>
-6.1665

> <Gold.Goldscore.Internal.Torsion.Weighted>
-4.8503

> <Gold.Goldscore.External.Vdw.Weighted>
55.9720

> <Gold.Goldscore.Internal.HBond.Weighted>
0.0000

> <Gold.Goldscore.External.HBond.Weighted>
3.4193

> <Gold.Goldscore.Internal.Correction.Weighted>
-8.9284

> <Gold.Protein.RotatedTorsions>
[ 3781 1176 1175 1172 ] final  118.39 input   60.00 | X-H torsion
[ 3847 1247 1246 1244 ] final   66.06 input   60.00 | X-H torsion
[ 4507 1931 1930 1928 ] final   45.80 input   60.00 | X-H torsion
[ 3677 1070 1069 1066 ] final -106.67 input   60.00 | X-H torsion
[ 3525  925  924  922 ] final   64.29 input   59.99 | X-H torsion
[ 4531 1957 1955 1953 ] final -136.49 input   60.00 | X-H torsion

> <Gold.Protein.ActiveResidues>
 PHE267  PRO268  MET310  ASP335  TRP336  MET339  TYR343  THR360  PRO361  ILE363 
 PRO371  SER374  ILE375  ASN378  PHE381  TYR383  GLN384  PHE387  LEU408  LEU417 
 MET419  LEU428  TYR466  MET469  ASN472  ASP496  VAL498  LEU499  MET503  HIS524 
 TRP525 

> <Gold.Protein.RotatedAtoms>
   -2.7418  -29.8838  -30.8584 H   0  0  0  0  0  0  0  0  0  0  0  0  # atno 3525 bound_to 925 
  -11.6396  -23.7047  -31.4356 H   0  0  0  0  0  0  0  0  0  0  0  0  # atno 3677 bound_to 1070
   -9.8617  -37.0973  -32.3717 H   0  0  0  0  0  0  0  0  0  0  0  0  # atno 3781 bound_to 1176
  -14.7518  -28.8955  -37.3630 H   0  0  0  0  0  0  0  0  0  0  0  0  # atno 3847 bound_to 1247
  -12.7667  -24.8594  -38.7944 H   0  0  0  0  0  0  0  0  0  0  0  0  # atno 4507 bound_to 1931
   -1.2594  -33.1123  -37.0033 H   0  0  0  0  0  0  0  0  0  0  0  0  # atno 4531 bound_to 1957
  -10.8007  -37.2252  -33.6946 LP  0  0  0  0  0  0  0  0  0  0  0  0  # atno 5205 bound_to 1176
   -9.4495  -36.3090  -33.7343 LP  0  0  0  0  0  0  0  0  0  0  0  0  # atno 5206 bound_to 1176
  -16.0731  -27.9598  -37.1997 LP  0  0  0  0  0  0  0  0  0  0  0  0  # atno 5215 bound_to 1247
  -14.7426  -27.3760  -37.9452 LP  0  0  0  0  0  0  0  0  0  0  0  0  # atno 5216 bound_to 1247
  -13.7019  -25.0902  -40.1060 LP  0  0  0  0  0  0  0  0  0  0  0  0  # atno 5217 bound_to 1931
  -12.7282  -23.7825  -40.0138 LP  0  0  0  0  0  0  0  0  0  0  0  0  # atno 5218 bound_to 1931
  -11.4082  -22.2576  -30.7282 LP  0  0  0  0  0  0  0  0  0  0  0  0  # atno 5224 bound_to 1070
  -12.8084  -23.0663  -30.5004 LP  0  0  0  0  0  0  0  0  0  0  0  0  # atno 5225 bound_to 1070

$$$$
IA_142.cdx|SeH_inactivess_minimized|sdf|45|dock5
  -GOLD-   4172119363D 1   1.00000     0.00000

 27 27  0  0  0  0  0  0  0  0  1 V2000
   -9.0159  -26.3559  -34.3966 C   0  0  0  0  0  0  0  0  0  0  0  0
   -9.7965  -25.2420  -34.0879 C   0  0  0  0  0  0  0  0  0  0  0  0
   -9.3752  -27.1870  -35.4577 C   0  0  0  0  0  0  0  0  0  0  0  0
  -10.9365  -24.9591  -34.8402 C   0  0  0  0  0  0  0  0  0  0  0  0
  -10.5152  -26.9040  -36.2101 C   0  0  0  0  0  0  0  0  0  0  0  0
  -11.2959  -25.7902  -35.9013 C   0  0  0  0  0  0  0  0  0  0  0  0
  -16.1941  -25.6588  -36.0930 C   0  0  0  0  0  0  0  0  0  0  0  0
  -18.5668  -24.9517  -36.4054 C   0  0  0  0  0  0  0  0  0  0  0  0
  -12.5292  -25.4848  -36.7154 C   0  0  0  0  0  0  0  0  0  0  0  0
  -13.7703  -26.2195  -36.2146 C   0  0  0  0  0  0  0  0  0  0  0  0
  -17.2108  -25.1178  -36.8754 N   0  0  0  0  0  0  0  0  0  0  0  0
  -14.9897  -25.7035  -36.7907 N   0  0  0  0  0  0  0  0  0  0  0  0
  -16.3393  -26.0485  -34.9351 O   0  0  0  0  0  0  0  0  0  0  0  0
   -8.1275  -26.5753  -33.8116 H   0  0  0  0  0  0  0  0  0  0  0  0
   -9.5163  -24.5941  -33.2624 H   0  0  0  0  0  0  0  0  0  0  0  0
   -8.7670  -28.0537  -35.6991 H   0  0  0  0  0  0  0  0  0  0  0  0
  -11.5389  -24.0891  -34.5923 H   0  0  0  0  0  0  0  0  0  0  0  0
  -10.7876  -27.5572  -37.0350 H   0  0  0  0  0  0  0  0  0  0  0  0
  -18.6174  -25.1409  -35.3300 H   0  0  0  0  0  0  0  0  0  0  0  0
  -19.2327  -25.6513  -36.9176 H   0  0  0  0  0  0  0  0  0  0  0  0
  -18.9122  -23.9328  -36.6000 H   0  0  0  0  0  0  0  0  0  0  0  0
  -12.3367  -25.7675  -37.7582 H   0  0  0  0  0  0  0  0  0  0  0  0
  -12.7092  -24.4022  -36.7246 H   0  0  0  0  0  0  0  0  0  0  0  0
  -13.7141  -27.2773  -36.4902 H   0  0  0  0  0  0  0  0  0  0  0  0
  -13.8663  -26.1549  -35.1258 H   0  0  0  0  0  0  0  0  0  0  0  0
  -16.9885  -24.8256  -37.8220 H   0  0  0  0  0  0  0  0  0  0  0  0
  -14.9749  -25.4022  -37.7600 H   0  0  0  0  0  0  0  0  0  0  0  0
  1  2  2  0  0  0  0
  1  3  1  0  0  0  0
  2  4  1  0  0  0  0
  3  5  2  0  0  0  0
  4  6  2  0  0  0  0
  5  6  1  0  0  0  0
  6  9  1  0  0  0  0
  7 11  1  0  0  0  0
  7 12  1  0  0  0  0
  7 13  2  0  0  0  0
  8 11  1  0  0  0  0
  9 10  1  0  0  0  0
 10 12  1  0  0  0  0
  1 14  1  0  0  0  0
  2 15  1  0  0  0  0
  3 16  1  0  0  0  0
  4 17  1  0  0  0  0
  5 18  1  0  0  0  0
  8 19  1  0  0  0  0
  8 20  1  0  0  0  0
  8 21  1  0  0  0  0
  9 22  1  0  0  0  0
  9 23  1  0  0  0  0
 10 24  1  0  0  0  0
 10 25  1  0  0  0  0
 11 26  1  0  0  0  0
 12 27  1  0  0  0  0
M  END
> <Name>
IA_142.cdx

> <SourceTag>
IA_142

> <Gold.Version>
5.2

> <Gold.Id.Protein>
6HGV|6HGV_protein|mol2

> <Gold.Goldscore.Fitness>
47.3253

> <Gold.Goldscore.Internal.Vdw>
-0.9829

> <Gold.Goldscore.Internal.Torsion>
-1.9088

> <Gold.Goldscore.External.Vdw>
36.1483

> <Gold.Goldscore.Internal.HBond>
0.0000

> <Gold.Goldscore.External.HBond>
0.0000

> <Gold.Goldscore.Internal.Correction>
-0.5130

> <Gold.Goldscore.Internal.Vdw.Weighted>
-0.9829

> <Gold.Goldscore.Internal.Torsion.Weighted>
-1.9088

> <Gold.Goldscore.External.Vdw.Weighted>
49.7039

> <Gold.Goldscore.Internal.HBond.Weighted>
0.0000

> <Gold.Goldscore.External.HBond.Weighted>
0.0000

> <Gold.Goldscore.Internal.Correction.Weighted>
-0.5130

> <Gold.Protein.RotatedTorsions>
[ 3781 1176 1175 1172 ] final  148.41 input   60.00 | X-H torsion
[ 3847 1247 1246 1244 ] final  -37.04 input   60.00 | X-H torsion
[ 4507 1931 1930 1928 ] final  -75.56 input   60.00 | X-H torsion
[ 3677 1070 1069 1066 ] final -128.59 input   60.00 | X-H torsion
[ 3525  925  924  922 ] final  119.36 input   59.99 | X-H torsion
[ 4531 1957 1955 1953 ] final   25.61 input   60.00 | X-H torsion

> <Gold.Protein.ActiveResidues>
 PHE267  PRO268  MET310  ASP335  TRP336  MET339  TYR343  THR360  PRO361  ILE363 
 PRO371  SER374  ILE375  ASN378  PHE381  TYR383  GLN384  PHE387  LEU408  LEU417 
 MET419  LEU428  TYR466  MET469  ASN472  ASP496  VAL498  LEU499  MET503  HIS524 
 TRP525 

> <Gold.Protein.RotatedAtoms>
   -2.1254  -30.2000  -30.3392 H   0  0  0  0  0  0  0  0  0  0  0  0  # atno 3525 bound_to 925 
  -11.3624  -23.4815  -31.4448 H   0  0  0  0  0  0  0  0  0  0  0  0  # atno 3677 bound_to 1070
   -9.4976  -36.8053  -32.5029 H   0  0  0  0  0  0  0  0  0  0  0  0  # atno 3781 bound_to 1176
  -16.0306  -28.2207  -37.1192 H   0  0  0  0  0  0  0  0  0  0  0  0  # atno 3847 bound_to 1247
  -13.6950  -25.0730  -40.1203 H   0  0  0  0  0  0  0  0  0  0  0  0  # atno 4507 bound_to 1931
   -3.0591  -32.8617  -36.6568 H   0  0  0  0  0  0  0  0  0  0  0  0  # atno 4531 bound_to 1957
  -10.8173  -37.4061  -33.2414 LP  0  0  0  0  0  0  0  0  0  0  0  0  # atno 5205 bound_to 1176
   -9.7995  -36.4222  -34.0554 LP  0  0  0  0  0  0  0  0  0  0  0  0  # atno 5206 bound_to 1176
  -14.9844  -27.2484  -37.8991 LP  0  0  0  0  0  0  0  0  0  0  0  0  # atno 5215 bound_to 1247
  -14.5435  -28.7670  -37.4912 LP  0  0  0  0  0  0  0  0  0  0  0  0  # atno 5216 bound_to 1247
  -12.7155  -23.7796  -39.9956 LP  0  0  0  0  0  0  0  0  0  0  0  0  # atno 5217 bound_to 1931
  -12.7798  -24.8780  -38.7890 LP  0  0  0  0  0  0  0  0  0  0  0  0  # atno 5218 bound_to 1931
  -11.6997  -22.1736  -30.5371 LP  0  0  0  0  0  0  0  0  0  0  0  0  # atno 5224 bound_to 1070
  -12.7961  -23.3751  -30.6823 LP  0  0  0  0  0  0  0  0  0  0  0  0  # atno 5225 bound_to 1070

$$$$
IA_164.cdx|SeH_inactivess_minimized|sdf|66|dock9
  -GOLD-   4172120 53D 1   1.00000     0.00000

 26 25  0  0  0  0  0  0  0  0  1 V2000
  -14.3109  -25.2917  -36.6705 C   0  0  0  0  0  0  0  0  0  0  0  0
  -11.6166  -25.0796  -34.8079 C   0  0  0  0  0  0  0  0  0  0  0  0
  -11.0120  -26.9605  -36.3708 C   0  0  0  0  0  0  0  0  0  0  0  0
  -17.0686  -25.5140  -38.4726 C   0  0  0  0  0  0  0  0  0  0  0  0
  -16.3392  -23.1412  -38.9010 C   0  0  0  0  0  0  0  0  0  0  0  0
  -12.1433  -26.1779  -35.7203 C   0  0  0  0  0  0  0  0  0  0  0  0
  -16.2707  -24.3279  -37.9509 C   0  0  0  0  0  0  0  0  0  0  0  0
  -12.9603  -25.5803  -36.7607 N   0  0  0  0  0  0  0  0  0  0  0  0
  -14.8845  -24.7216  -37.7909 N   0  0  0  0  0  0  0  0  0  0  0  0
  -15.2800  -25.5802  -35.3270 S   0  0  0  0  0  0  0  0  0  0  0  0
  -11.0436  -25.5041  -33.9772 H   0  0  0  0  0  0  0  0  0  0  0  0
  -10.9663  -24.3855  -35.3518 H   0  0  0  0  0  0  0  0  0  0  0  0
  -12.4421  -24.4953  -34.3868 H   0  0  0  0  0  0  0  0  0  0  0  0
  -10.4215  -27.4901  -35.6151 H   0  0  0  0  0  0  0  0  0  0  0  0
  -10.3400  -26.2919  -36.9187 H   0  0  0  0  0  0  0  0  0  0  0  0
  -11.3953  -27.7094  -37.0730 H   0  0  0  0  0  0  0  0  0  0  0  0
  -16.6804  -25.8503  -39.4395 H   0  0  0  0  0  0  0  0  0  0  0  0
  -17.0297  -26.3595  -37.7765 H   0  0  0  0  0  0  0  0  0  0  0  0
  -18.1224  -25.2454  -38.6052 H   0  0  0  0  0  0  0  0  0  0  0  0
  -16.0401  -23.4361  -39.9127 H   0  0  0  0  0  0  0  0  0  0  0  0
  -15.6722  -22.3383  -38.5707 H   0  0  0  0  0  0  0  0  0  0  0  0
  -17.3556  -22.7365  -38.9634 H   0  0  0  0  0  0  0  0  0  0  0  0
  -12.7760  -26.8618  -35.1442 H   0  0  0  0  0  0  0  0  0  0  0  0
  -16.6538  -24.0313  -36.9684 H   0  0  0  0  0  0  0  0  0  0  0  0
  -12.4794  -25.3620  -37.6259 H   0  0  0  0  0  0  0  0  0  0  0  0
  -14.2708  -24.5619  -38.5841 H   0  0  0  0  0  0  0  0  0  0  0  0
  1  8  1  0  0  0  0
  1  9  1  0  0  0  0
  1 10  2  0  0  0  0
  2  6  1  0  0  0  0
  3  6  1  0  0  0  0
  4  7  1  0  0  0  0
  5  7  1  0  0  0  0
  6  8  1  0  0  0  0
  7  9  1  0  0  0  0
  2 11  1  0  0  0  0
  2 12  1  0  0  0  0
  2 13  1  0  0  0  0
  3 14  1  0  0  0  0
  3 15  1  0  0  0  0
  3 16  1  0  0  0  0
  4 17  1  0  0  0  0
  4 18  1  0  0  0  0
  4 19  1  0  0  0  0
  5 20  1  0  0  0  0
  5 21  1  0  0  0  0
  5 22  1  0  0  0  0
  6 23  1  0  0  0  0
  7 24  1  0  0  0  0
  8 25  1  0  0  0  0
  9 26  1  0  0  0  0
M  END
> <Name>
IA_164.cdx

> <SourceTag>
IA_164

> <Gold.Version>
5.2

> <Gold.Id.Protein>
6HGV|6HGV_protein|mol2

> <Gold.Goldscore.Fitness>
43.2849

> <Gold.Goldscore.Internal.Vdw>
-1.4525

> <Gold.Goldscore.Internal.Torsion>
-1.3107

> <Gold.Goldscore.External.Vdw>
30.1551

> <Gold.Goldscore.Internal.HBond>
0.0000

> <Gold.Goldscore.External.HBond>
2.0034

> <Gold.Goldscore.Internal.Correction>
-2.5814

> <Gold.Goldscore.Hbonds>
donor molecule, donor type, donor heavy atom, donor atom, acceptor molecule, acceptor atom, score
      L1  H     8    25       P1  1931  0.18
      L1  H     9    26       P1  1931  0.82

> <Gold.Goldscore.Internal.Vdw.Weighted>
-1.4525

> <Gold.Goldscore.Internal.Torsion.Weighted>
-1.3107

> <Gold.Goldscore.External.Vdw.Weighted>
41.4633

> <Gold.Goldscore.Internal.HBond.Weighted>
0.0000

> <Gold.Goldscore.External.HBond.Weighted>
2.0034

> <Gold.Goldscore.Internal.Correction.Weighted>
-2.5814

> <Gold.Protein.RotatedTorsions>
[ 3781 1176 1175 1172 ] final  -42.90 input   60.00 | X-H torsion
[ 3847 1247 1246 1244 ] final  107.65 input   60.00 | X-H torsion
[ 4507 1931 1930 1928 ] final -163.40 input   60.00 | X-H torsion
[ 3677 1070 1069 1066 ] final  -99.99 input   60.00 | X-H torsion
[ 3525  925  924  922 ] final  -78.26 input   59.99 | X-H torsion
[ 4531 1957 1955 1953 ] final  -79.95 input   60.00 | X-H torsion

> <Gold.Protein.ActiveResidues>
 PHE267  PRO268  MET310  ASP335  TRP336  MET339  TYR343  THR360  PRO361  ILE363 
 PRO371  SER374  ILE375  ASN378  PHE381  TYR383  GLN384  PHE387  LEU408  LEU417 
 MET419  LEU428  TYR466  MET469  ASN472  ASP496  VAL498  LEU499  MET503  HIS524 
 TRP525 

> <Gold.Protein.RotatedAtoms>
   -3.5619  -29.6687  -29.3009 H   0  0  0  0  0  0  0  0  0  0  0  0  # atno 3525 bound_to 925 
  -11.7352  -23.7540  -31.4167 H   0  0  0  0  0  0  0  0  0  0  0  0  # atno 3677 bound_to 1070
  -10.4496  -36.8406  -34.1043 H   0  0  0  0  0  0  0  0  0  0  0  0  # atno 3781 bound_to 1176
  -14.3556  -28.4677  -37.6822 H   0  0  0  0  0  0  0  0  0  0  0  0  # atno 3847 bound_to 1247
  -13.0507  -23.9682  -40.3463 H   0  0  0  0  0  0  0  0  0  0  0  0  # atno 4507 bound_to 1931
   -1.6852  -32.3400  -36.9090 H   0  0  0  0  0  0  0  0  0  0  0  0  # atno 4531 bound_to 1957
   -9.2380  -36.4014  -33.1107 LP  0  0  0  0  0  0  0  0  0  0  0  0  # atno 5205 bound_to 1176
  -10.4202  -37.3914  -32.5734 LP  0  0  0  0  0  0  0  0  0  0  0  0  # atno 5206 bound_to 1176
  -15.8519  -28.5741  -37.0515 LP  0  0  0  0  0  0  0  0  0  0  0  0  # atno 5215 bound_to 1247
  -15.3628  -27.1927  -37.7719 LP  0  0  0  0  0  0  0  0  0  0  0  0  # atno 5216 bound_to 1247
  -12.5207  -24.4337  -38.8799 LP  0  0  0  0  0  0  0  0  0  0  0  0  # atno 5217 bound_to 1931
  -13.6234  -25.3365  -39.6771 LP  0  0  0  0  0  0  0  0  0  0  0  0  # atno 5218 bound_to 1931
  -11.3333  -22.3058  -30.7925 LP  0  0  0  0  0  0  0  0  0  0  0  0  # atno 5224 bound_to 1070
  -12.7871  -22.9685  -30.4551 LP  0  0  0  0  0  0  0  0  0  0  0  0  # atno 5225 bound_to 1070

$$$$
IA_181.cdx|SeH_inactivess_minimized|sdf|82|dock9
  -GOLD-   4172120223D 1   1.00000     0.00000

 16 17  0  0  0  0  0  0  0  0  1 V2000
  -20.2024  -24.1121  -38.9674 C   0  0  0  0  0  0  0  0  0  0  0  0
  -21.1516  -24.1543  -37.9224 C   0  0  0  0  0  0  0  0  0  0  0  0
  -18.8528  -24.3894  -38.7287 C   0  0  0  0  0  0  0  0  0  0  0  0
  -20.7727  -24.4750  -36.6151 C   0  0  0  0  0  0  0  0  0  0  0  0
  -18.5040  -24.7024  -37.4345 C   0  0  0  0  0  0  0  0  0  0  0  0
  -19.4393  -24.7441  -36.4049 C   0  0  0  0  0  0  0  0  0  0  0  0
  -17.3972  -25.2680  -35.5117 C   0  0  0  0  0  0  0  0  0  0  0  0
  -17.2526  -25.0197  -36.9061 N   0  0  0  0  0  0  0  0  0  0  0  0
  -18.7800  -25.0880  -35.2246 N   0  0  0  0  0  0  0  0  0  0  0  0
  -16.5147  -25.5738  -34.7226 O   0  0  0  0  0  0  0  0  0  0  0  0
  -20.5296  -23.8594  -39.9728 H   0  0  0  0  0  0  0  0  0  0  0  0
  -22.1934  -23.9336  -38.1406 H   0  0  0  0  0  0  0  0  0  0  0  0
  -18.1231  -24.3574  -39.5290 H   0  0  0  0  0  0  0  0  0  0  0  0
  -21.5009  -24.5074  -35.8135 H   0  0  0  0  0  0  0  0  0  0  0  0
  -16.3858  -25.0658  -37.4274 H   0  0  0  0  0  0  0  0  0  0  0  0
  -19.2127  -25.1922  -34.3152 H   0  0  0  0  0  0  0  0  0  0  0  0
  1  2  2  0  0  0  0
  1  3  1  0  0  0  0
  2  4  1  0  0  0  0
  3  5  2  0  0  0  0
  4  6  2  0  0  0  0
  5  6  1  0  0  0  0
  5  8  1  0  0  0  0
  6  9  1  0  0  0  0
  7  8  1  0  0  0  0
  7  9  1  0  0  0  0
  7 10  2  0  0  0  0
  1 11  1  0  0  0  0
  2 12  1  0  0  0  0
  3 13  1  0  0  0  0
  4 14  1  0  0  0  0
  8 15  1  0  0  0  0
  9 16  1  0  0  0  0
M  END
> <Name>
IA_181.cdx

> <SourceTag>
IA_181

> <Gold.Version>
5.2

> <Gold.Id.Protein>
6HGV|6HGV_protein|mol2

> <Gold.Goldscore.Fitness>
32.2546

> <Gold.Goldscore.Internal.Vdw>
-0.0000

> <Gold.Goldscore.Internal.Torsion>
-0.0000

> <Gold.Goldscore.External.Vdw>
19.0943

> <Gold.Goldscore.Internal.HBond>
0.0000

> <Gold.Goldscore.External.HBond>
6.0000

> <Gold.Goldscore.Internal.Correction>
0.0000

> <Gold.Goldscore.Hbonds>
donor molecule, donor type, donor heavy atom, donor atom, acceptor molecule, acceptor atom, score
      L1  H     9    16       P1  2185  1.00

> <Gold.Goldscore.Internal.Vdw.Weighted>
-0.0000

> <Gold.Goldscore.Internal.Torsion.Weighted>
-0.0000

> <Gold.Goldscore.External.Vdw.Weighted>
26.2546

> <Gold.Goldscore.Internal.HBond.Weighted>
0.0000

> <Gold.Goldscore.External.HBond.Weighted>
6.0000

> <Gold.Goldscore.Internal.Correction.Weighted>
0.0000

> <Gold.Protein.RotatedTorsions>
[ 3781 1176 1175 1172 ] final -104.58 input   60.00 | X-H torsion
[ 3847 1247 1246 1244 ] final  -89.56 input   60.00 | X-H torsion
[ 4507 1931 1930 1928 ] final  -30.18 input   60.00 | X-H torsion
[ 3677 1070 1069 1066 ] final   98.74 input   60.00 | X-H torsion
[ 3525  925  924  922 ] final   17.10 input   59.99 | X-H torsion
[ 4531 1957 1955 1953 ] final  166.24 input   60.00 | X-H torsion

> <Gold.Protein.ActiveResidues>
 PHE267  PRO268  MET310  ASP335  TRP336  MET339  TYR343  THR360  PRO361  ILE363 
 PRO371  SER374  ILE375  ASN378  PHE381  TYR383  GLN384  PHE387  LEU408  LEU417 
 MET419  LEU428  TYR466  MET469  ASN472  ASP496  VAL498  LEU499  MET503  HIS524 
 TRP525 

> <Gold.Protein.RotatedAtoms>
   -3.4140  -29.6074  -30.6761 H   0  0  0  0  0  0  0  0  0  0  0  0  # atno 3525 bound_to 925 
  -11.8873  -22.1871  -30.4496 H   0  0  0  0  0  0  0  0  0  0  0  0  # atno 3677 bound_to 1070
   -9.6356  -36.3611  -33.9345 H   0  0  0  0  0  0  0  0  0  0  0  0  # atno 3781 bound_to 1176
  -15.9014  -27.4745  -37.4554 H   0  0  0  0  0  0  0  0  0  0  0  0  # atno 3847 bound_to 1247
  -13.5334  -25.3742  -39.4839 H   0  0  0  0  0  0  0  0  0  0  0  0  # atno 4507 bound_to 1931
   -1.6686  -33.9084  -36.9393 H   0  0  0  0  0  0  0  0  0  0  0  0  # atno 4531 bound_to 1957
   -9.6411  -36.9324  -32.4108 LP  0  0  0  0  0  0  0  0  0  0  0  0  # atno 5205 bound_to 1176
  -10.8369  -37.3432  -33.4443 LP  0  0  0  0  0  0  0  0  0  0  0  0  # atno 5206 bound_to 1176
  -14.3803  -27.8238  -37.9161 LP  0  0  0  0  0  0  0  0  0  0  0  0  # atno 5215 bound_to 1247
  -15.2776  -28.9431  -37.1357 LP  0  0  0  0  0  0  0  0  0  0  0  0  # atno 5216 bound_to 1247
  -13.1984  -24.0982  -40.4366 LP  0  0  0  0  0  0  0  0  0  0  0  0  # atno 5217 bound_to 1931
  -12.4597  -24.2561  -38.9888 LP  0  0  0  0  0  0  0  0  0  0  0  0  # atno 5218 bound_to 1931
  -12.7324  -23.5321  -30.8030 LP  0  0  0  0  0  0  0  0  0  0  0  0  # atno 5224 bound_to 1070
  -11.2348  -23.3200  -31.4185 LP  0  0  0  0  0  0  0  0  0  0  0  0  # atno 5225 bound_to 1070

$$$$
IA_112.cdx|SeH_inactivess_minimized|sdf|15|dock9
  -GOLD-   4172118523D 1   1.00000     0.00000

 33 33  0  0  0  0  0  0  0  0  1 V2000
  -16.3208  -24.8346  -37.9142 C   0  0  0  0  0  0  0  0  0  0  0  0
  -13.9404  -25.6847  -36.5393 C   0  0  0  0  0  0  0  0  0  0  0  0
  -10.0726  -27.2890  -33.8546 C   0  0  0  0  0  0  0  0  0  0  0  0
  -10.5849  -25.8744  -33.5971 C   0  0  0  0  0  0  0  0  0  0  0  0
  -10.8943  -28.0070  -34.9219 C   0  0  0  0  0  0  0  0  0  0  0  0
  -10.6691  -25.0624  -34.8902 C   0  0  0  0  0  0  0  0  0  0  0  0
  -10.9774  -27.1900  -36.2120 C   0  0  0  0  0  0  0  0  0  0  0  0
  -11.4909  -25.7625  -35.9807 C   0  0  0  0  0  0  0  0  0  0  0  0
  -16.1653  -24.9098  -40.2733 C   0  0  0  0  0  0  0  0  0  0  0  0
  -16.4286  -25.6516  -36.6480 C   0  0  0  0  0  0  0  0  0  0  0  0
  -12.9077  -25.7872  -35.6105 N   0  0  0  0  0  0  0  0  0  0  0  0
  -15.1857  -25.7361  -35.9178 N   0  0  0  0  0  0  0  0  0  0  0  0
  -16.3215  -23.6081  -37.9017 O   0  0  0  0  0  0  0  0  0  0  0  0
  -13.7756  -25.5648  -37.7526 O   0  0  0  0  0  0  0  0  0  0  0  0
  -16.2273  -25.6123  -39.0277 O   0  0  0  0  0  0  0  0  0  0  0  0
   -9.0209  -27.2496  -34.1636 H   0  0  0  0  0  0  0  0  0  0  0  0
  -10.1075  -27.8646  -32.9201 H   0  0  0  0  0  0  0  0  0  0  0  0
  -11.5730  -25.9199  -33.1266 H   0  0  0  0  0  0  0  0  0  0  0  0
   -9.9166  -25.3665  -32.8915 H   0  0  0  0  0  0  0  0  0  0  0  0
  -10.4417  -28.9822  -35.1374 H   0  0  0  0  0  0  0  0  0  0  0  0
  -11.9038  -28.1990  -34.5428 H   0  0  0  0  0  0  0  0  0  0  0  0
  -11.1066  -24.0726  -34.6713 H   0  0  0  0  0  0  0  0  0  0  0  0
   -9.6498  -24.8604  -35.2604 H   0  0  0  0  0  0  0  0  0  0  0  0
   -9.9827  -27.1578  -36.6877 H   0  0  0  0  0  0  0  0  0  0  0  0
  -11.6335  -27.7102  -36.9316 H   0  0  0  0  0  0  0  0  0  0  0  0
  -11.4314  -25.1960  -36.9065 H   0  0  0  0  0  0  0  0  0  0  0  0
  -15.2938  -24.2506  -40.2777 H   0  0  0  0  0  0  0  0  0  0  0  0
  -17.0786  -24.3248  -40.4086 H   0  0  0  0  0  0  0  0  0  0  0  0
  -16.0753  -25.6343  -41.0860 H   0  0  0  0  0  0  0  0  0  0  0  0
  -16.7279  -26.6703  -36.9077 H   0  0  0  0  0  0  0  0  0  0  0  0
  -17.1668  -25.1914  -35.9866 H   0  0  0  0  0  0  0  0  0  0  0  0
  -13.1488  -25.8837  -34.6286 H   0  0  0  0  0  0  0  0  0  0  0  0
  -15.2255  -25.8834  -34.9143 H   0  0  0  0  0  0  0  0  0  0  0  0
  1 10  1  0  0  0  0
  1 13  2  0  0  0  0
  1 15  1  0  0  0  0
  2 11  1  0  0  0  0
  2 12  1  0  0  0  0
  2 14  2  0  0  0  0
  3  4  1  0  0  0  0
  3  5  1  0  0  0  0
  4  6  1  0  0  0  0
  5  7  1  0  0  0  0
  6  8  1  0  0  0  0
  7  8  1  0  0  0  0
  8 11  1  0  0  0  0
  9 15  1  0  0  0  0
 10 12  1  0  0  0  0
  3 16  1  0  0  0  0
  3 17  1  0  0  0  0
  4 18  1  0  0  0  0
  4 19  1  0  0  0  0
  5 20  1  0  0  0  0
  5 21  1  0  0  0  0
  6 22  1  0  0  0  0
  6 23  1  0  0  0  0
  7 24  1  0  0  0  0
  7 25  1  0  0  0  0
  8 26  1  0  0  0  0
  9 27  1  0  0  0  0
  9 28  1  0  0  0  0
  9 29  1  0  0  0  0
 10 30  1  0  0  0  0
 10 31  1  0  0  0  0
 11 32  1  0  0  0  0
 12 33  1  0  0  0  0
M  END
> <Name>
IA_112.cdx

> <SourceTag>
IA_112

> <Gold.Version>
5.2

> <Gold.Id.Protein>
6HGV|6HGV_protein|mol2

> <Gold.Goldscore.Fitness>
47.6115

> <Gold.Goldscore.Internal.Vdw>
-1.7563

> <Gold.Goldscore.Internal.Torsion>
-1.8374

> <Gold.Goldscore.External.Vdw>
34.4294

> <Gold.Goldscore.Internal.HBond>
0.0000

> <Gold.Goldscore.External.HBond>
1.4733

> <Gold.Goldscore.Internal.Correction>
-2.3914

> <Gold.Goldscore.Hbonds>
donor molecule, donor type, donor heavy atom, donor atom, acceptor molecule, acceptor atom, score
      P1  H  1931  4507       L1    14  0.74

> <Gold.Goldscore.Internal.Vdw.Weighted>
-1.7563

> <Gold.Goldscore.Internal.Torsion.Weighted>
-1.8374

> <Gold.Goldscore.External.Vdw.Weighted>
47.3404

> <Gold.Goldscore.Internal.HBond.Weighted>
0.0000

> <Gold.Goldscore.External.HBond.Weighted>
1.4733

> <Gold.Goldscore.Internal.Correction.Weighted>
-2.3914

> <Gold.Protein.RotatedTorsions>
[ 3781 1176 1175 1172 ] final -135.73 input   60.00 | X-H torsion
[ 3847 1247 1246 1244 ] final   71.02 input   60.00 | X-H torsion
[ 4507 1931 1930 1928 ] final   18.90 input   60.00 | X-H torsion
[ 3677 1070 1069 1066 ] final  -97.32 input   60.00 | X-H torsion
[ 3525  925  924  922 ] final  158.82 input   59.99 | X-H torsion
[ 4531 1957 1955 1953 ] final  -26.62 input   60.00 | X-H torsion

> <Gold.Protein.ActiveResidues>
 PHE267  PRO268  MET310  ASP335  TRP336  MET339  TYR343  THR360  PRO361  ILE363 
 PRO371  SER374  ILE375  ASN378  PHE381  TYR383  GLN384  PHE387  LEU408  LEU417 
 MET419  LEU428  TYR466  MET469  ASN472  ASP496  VAL498  LEU499  MET503  HIS524 
 TRP525 

> <Gold.Protein.RotatedAtoms>
   -2.0886  -30.2734  -29.7124 H   0  0  0  0  0  0  0  0  0  0  0  0  # atno 3525 bound_to 925 
  -11.7742  -23.7708  -31.4071 H   0  0  0  0  0  0  0  0  0  0  0  0  # atno 3677 bound_to 1070
   -9.3387  -36.3140  -33.5316 H   0  0  0  0  0  0  0  0  0  0  0  0  # atno 3781 bound_to 1176
  -14.6874  -28.8635  -37.4005 H   0  0  0  0  0  0  0  0  0  0  0  0  # atno 3847 bound_to 1247
  -13.0514  -25.1682  -38.9095 H   0  0  0  0  0  0  0  0  0  0  0  0  # atno 4507 bound_to 1931
   -2.5065  -32.2576  -36.7514 H   0  0  0  0  0  0  0  0  0  0  0  0  # atno 4531 bound_to 1957
  -10.0574  -37.2194  -32.3863 LP  0  0  0  0  0  0  0  0  0  0  0  0  # atno 5205 bound_to 1176
  -10.7195  -37.1037  -33.8746 LP  0  0  0  0  0  0  0  0  0  0  0  0  # atno 5206 bound_to 1176
  -16.0700  -28.0365  -37.1715 LP  0  0  0  0  0  0  0  0  0  0  0  0  # atno 5215 bound_to 1247
  -14.8105  -27.3316  -37.9355 LP  0  0  0  0  0  0  0  0  0  0  0  0  # atno 5216 bound_to 1247
  -13.6231  -24.7533  -40.3754 LP  0  0  0  0  0  0  0  0  0  0  0  0  # atno 5217 bound_to 1931
  -12.5204  -23.8085  -39.6285 LP  0  0  0  0  0  0  0  0  0  0  0  0  # atno 5218 bound_to 1931
  -11.3057  -22.3278  -30.8186 LP  0  0  0  0  0  0  0  0  0  0  0  0  # atno 5224 bound_to 1070
  -12.7754  -22.9295  -30.4387 LP  0  0  0  0  0  0  0  0  0  0  0  0  # atno 5225 bound_to 1070

$$$$
IA_77.cdx|SeH_inactivess_minimized|sdf|154|dock8
  -GOLD-   4172122103D 1   1.00000     0.00000

 32 31  0  0  0  0  0  0  0  0  1 V2000
  -14.4225  -24.6062  -37.8382 C   0  0  0  0  0  0  0  0  0  0  0  0
   -9.5373  -25.8664  -34.1201 C   0  0  0  0  0  0  0  0  0  0  0  0
  -17.4286  -24.5002  -42.3342 C   0  0  0  0  0  0  0  0  0  0  0  0
  -10.5006  -26.3006  -35.2138 C   0  0  0  0  0  0  0  0  0  0  0  0
  -17.4634  -23.7058  -41.0378 C   0  0  0  0  0  0  0  0  0  0  0  0
  -11.4179  -25.1516  -35.6389 C   0  0  0  0  0  0  0  0  0  0  0  0
  -16.3452  -24.1391  -40.0869 C   0  0  0  0  0  0  0  0  0  0  0  0
  -12.3961  -25.5581  -36.7360 C   0  0  0  0  0  0  0  0  0  0  0  0
  -16.2480  -23.2489  -38.8526 C   0  0  0  0  0  0  0  0  0  0  0  0
  -13.1899  -24.4537  -37.1992 N   0  0  0  0  0  0  0  0  0  0  0  0
  -14.9759  -23.3751  -38.1810 N   0  0  0  0  0  0  0  0  0  0  0  0
  -14.9522  -25.6925  -38.0682 O   0  0  0  0  0  0  0  0  0  0  0  0
  -10.0791  -25.5527  -33.2220 H   0  0  0  0  0  0  0  0  0  0  0  0
   -8.8766  -26.6950  -33.8462 H   0  0  0  0  0  0  0  0  0  0  0  0
   -8.9137  -25.0314  -34.4549 H   0  0  0  0  0  0  0  0  0  0  0  0
  -16.5052  -24.3052  -42.8888 H   0  0  0  0  0  0  0  0  0  0  0  0
  -17.4779  -25.5729  -42.1226 H   0  0  0  0  0  0  0  0  0  0  0  0
  -18.2767  -24.2414  -42.9761 H   0  0  0  0  0  0  0  0  0  0  0  0
   -9.9266  -26.6571  -36.0770 H   0  0  0  0  0  0  0  0  0  0  0  0
  -11.0954  -27.1450  -34.8478 H   0  0  0  0  0  0  0  0  0  0  0  0
  -17.3633  -22.6388  -41.2679 H   0  0  0  0  0  0  0  0  0  0  0  0
  -18.4408  -23.8455  -40.5624 H   0  0  0  0  0  0  0  0  0  0  0  0
  -11.9711  -24.7813  -34.7670 H   0  0  0  0  0  0  0  0  0  0  0  0
  -10.8046  -24.3211  -36.0089 H   0  0  0  0  0  0  0  0  0  0  0  0
  -16.5054  -25.1805  -39.7816 H   0  0  0  0  0  0  0  0  0  0  0  0
  -15.3871  -24.1024  -40.6194 H   0  0  0  0  0  0  0  0  0  0  0  0
  -13.0789  -26.3403  -36.3899 H   0  0  0  0  0  0  0  0  0  0  0  0
  -11.8480  -25.9429  -37.6018 H   0  0  0  0  0  0  0  0  0  0  0  0
  -17.0344  -23.4854  -38.1289 H   0  0  0  0  0  0  0  0  0  0  0  0
  -16.3545  -22.1980  -39.1399 H   0  0  0  0  0  0  0  0  0  0  0  0
  -12.8350  -23.5097  -37.0539 H   0  0  0  0  0  0  0  0  0  0  0  0
  -14.4882  -22.5272  -37.9094 H   0  0  0  0  0  0  0  0  0  0  0  0
  1 10  1  0  0  0  0
  1 11  1  0  0  0  0
  1 12  2  0  0  0  0
  2  4  1  0  0  0  0
  3  5  1  0  0  0  0
  4  6  1  0  0  0  0
  5  7  1  0  0  0  0
  6  8  1  0  0  0  0
  7  9  1  0  0  0  0
  8 10  1  0  0  0  0
  9 11  1  0  0  0  0
  2 13  1  0  0  0  0
  2 14  1  0  0  0  0
  2 15  1  0  0  0  0
  3 16  1  0  0  0  0
  3 17  1  0  0  0  0
  3 18  1  0  0  0  0
  4 19  1  0  0  0  0
  4 20  1  0  0  0  0
  5 21  1  0  0  0  0
  5 22  1  0  0  0  0
  6 23  1  0  0  0  0
  6 24  1  0  0  0  0
  7 25  1  0  0  0  0
  7 26  1  0  0  0  0
  8 27  1  0  0  0  0
  8 28  1  0  0  0  0
  9 29  1  0  0  0  0
  9 30  1  0  0  0  0
 10 31  1  0  0  0  0
 11 32  1  0  0  0  0
M  END
> <Name>
IA_77.cdx

> <SourceTag>
IA_77

> <Gold.Version>
5.2

> <Gold.Id.Protein>
6HGV|6HGV_protein|mol2

> <Gold.Goldscore.Fitness>
50.3551

> <Gold.Goldscore.Internal.Vdw>
-3.5077

> <Gold.Goldscore.Internal.Torsion>
-1.8452

> <Gold.Goldscore.External.Vdw>
33.9015

> <Gold.Goldscore.Internal.HBond>
0.0000

> <Gold.Goldscore.External.HBond>
5.9313

> <Gold.Goldscore.Internal.Correction>
-3.1622

> <Gold.Goldscore.Hbonds>
donor molecule, donor type, donor heavy atom, donor atom, acceptor molecule, acceptor atom, score
      P1  H  1247  3847       L1    12  1.00
      L1  H    10    31       P1   854  0.60
      L1  H    11    32       P1   854  0.05

> <Gold.Goldscore.Internal.Vdw.Weighted>
-3.5077

> <Gold.Goldscore.Internal.Torsion.Weighted>
-1.8452

> <Gold.Goldscore.External.Vdw.Weighted>
46.6146

> <Gold.Goldscore.Internal.HBond.Weighted>
0.0000

> <Gold.Goldscore.External.HBond.Weighted>
5.9313

> <Gold.Goldscore.Internal.Correction.Weighted>
-3.1622

> <Gold.Protein.RotatedTorsions>
[ 3781 1176 1175 1172 ] final -133.10 input   60.00 | X-H torsion
[ 3847 1247 1246 1244 ] final -146.68 input   60.00 | X-H torsion
[ 4507 1931 1930 1928 ] final  144.35 input   60.00 | X-H torsion
[ 3677 1070 1069 1066 ] final -121.29 input   60.00 | X-H torsion
[ 3525  925  924  922 ] final  -94.79 input   59.99 | X-H torsion
[ 4531 1957 1955 1953 ] final -105.39 input   60.00 | X-H torsion

> <Gold.Protein.ActiveResidues>
 PHE267  PRO268  MET310  ASP335  TRP336  MET339  TYR343  THR360  PRO361  ILE363 
 PRO371  SER374  ILE375  ASN378  PHE381  TYR383  GLN384  PHE387  LEU408  LEU417 
 MET419  LEU428  TYR466  MET469  ASN472  ASP496  VAL498  LEU499  MET503  HIS524 
 TRP525 

> <Gold.Protein.RotatedAtoms>
   -3.3748  -29.7656  -29.1334 H   0  0  0  0  0  0  0  0  0  0  0  0  # atno 3525 bound_to 925 
  -11.4471  -23.5652  -31.4508 H   0  0  0  0  0  0  0  0  0  0  0  0  # atno 3677 bound_to 1070
   -9.3568  -36.3115  -33.5704 H   0  0  0  0  0  0  0  0  0  0  0  0  # atno 3781 bound_to 1176
  -15.1437  -27.2122  -37.8531 H   0  0  0  0  0  0  0  0  0  0  0  0  # atno 3847 bound_to 1247
  -12.5559  -23.7958  -39.7098 H   0  0  0  0  0  0  0  0  0  0  0  0  # atno 4507 bound_to 1931
   -1.3997  -32.6316  -36.9683 H   0  0  0  0  0  0  0  0  0  0  0  0  # atno 4531 bound_to 1957
  -10.0207  -37.1980  -32.3782 LP  0  0  0  0  0  0  0  0  0  0  0  0  # atno 5205 bound_to 1176
  -10.7379  -37.1276  -33.8436 LP  0  0  0  0  0  0  0  0  0  0  0  0  # atno 5206 bound_to 1176
  -14.4449  -28.6549  -37.5728 LP  0  0  0  0  0  0  0  0  0  0  0  0  # atno 5215 bound_to 1247
  -15.9761  -28.3762  -37.0784 LP  0  0  0  0  0  0  0  0  0  0  0  0  # atno 5216 bound_to 1247
  -12.9926  -25.1167  -38.8657 LP  0  0  0  0  0  0  0  0  0  0  0  0  # atno 5217 bound_to 1931
  -13.6498  -24.8272  -40.3323 LP  0  0  0  0  0  0  0  0  0  0  0  0  # atno 5218 bound_to 1931
  -11.5963  -22.1884  -30.5963 LP  0  0  0  0  0  0  0  0  0  0  0  0  # atno 5224 bound_to 1070
  -12.8142  -23.2760  -30.6169 LP  0  0  0  0  0  0  0  0  0  0  0  0  # atno 5225 bound_to 1070

$$$$
IA_203.cdx|SeH_inactivess_minimized|sdf|100|dock4
  -GOLD-   4172120443D 1   1.00000     0.00000

 68 67  0  0  0  0  0  0  0  0  1 V2000
   -8.4166  -28.4260  -34.5377 C   0  0  0  0  0  0  0  0  0  0  0  0
  -22.2157  -23.2726  -39.1886 C   0  0  0  0  0  0  0  0  0  0  0  0
   -5.8010  -33.0603  -35.4020 C   0  0  0  0  0  0  0  0  0  0  0  0
   -4.2643  -31.1248  -35.1531 C   0  0  0  0  0  0  0  0  0  0  0  0
   -4.4849  -32.7836  -33.3125 C   0  0  0  0  0  0  0  0  0  0  0  0
   -5.9242  -29.8545  -33.0754 C   0  0  0  0  0  0  0  0  0  0  0  0
   -7.2194  -31.9395  -32.6511 C   0  0  0  0  0  0  0  0  0  0  0  0
  -21.3798  -24.1062  -38.2305 C   0  0  0  0  0  0  0  0  0  0  0  0
  -19.8934  -23.7633  -38.3393 C   0  0  0  0  0  0  0  0  0  0  0  0
  -19.0481  -24.6769  -37.4491 C   0  0  0  0  0  0  0  0  0  0  0  0
  -17.5404  -24.4808  -37.6330 C   0  0  0  0  0  0  0  0  0  0  0  0
  -16.6952  -25.3423  -36.6907 C   0  0  0  0  0  0  0  0  0  0  0  0
  -15.2070  -25.2383  -37.0355 C   0  0  0  0  0  0  0  0  0  0  0  0
  -14.2928  -25.8820  -35.9889 C   0  0  0  0  0  0  0  0  0  0  0  0
  -12.8078  -25.5907  -36.2167 C   0  0  0  0  0  0  0  0  0  0  0  0
  -11.9314  -26.3904  -35.2489 C   0  0  0  0  0  0  0  0  0  0  0  0
  -10.4904  -25.8709  -35.2477 C   0  0  0  0  0  0  0  0  0  0  0  0
   -9.6849  -26.3368  -34.0337 C   0  0  0  0  0  0  0  0  0  0  0  0
   -7.5061  -30.7245  -34.8402 C   0  0  0  0  0  0  0  0  0  0  0  0
   -5.2818  -32.0084  -34.3904 C   0  0  0  0  0  0  0  0  0  0  0  0
   -6.4708  -31.1401  -33.7488 C   0  0  0  0  0  0  0  0  0  0  0  0
   -9.5253  -27.7857  -34.0091 N   0  0  0  0  0  0  0  0  0  0  0  0
   -8.5211  -29.8057  -34.3810 N   0  0  0  0  0  0  0  0  0  0  0  0
   -7.4651  -27.8592  -35.0736 O   0  0  0  0  0  0  0  0  0  0  0  0
  -22.0369  -22.2062  -39.0181 H   0  0  0  0  0  0  0  0  0  0  0  0
  -21.9611  -23.4976  -40.2292 H   0  0  0  0  0  0  0  0  0  0  0  0
  -23.2839  -23.4650  -39.0463 H   0  0  0  0  0  0  0  0  0  0  0  0
   -6.4028  -32.6086  -36.1954 H   0  0  0  0  0  0  0  0  0  0  0  0
   -6.4403  -33.7993  -34.9033 H   0  0  0  0  0  0  0  0  0  0  0  0
   -4.9831  -33.6202  -35.8659 H   0  0  0  0  0  0  0  0  0  0  0  0
   -4.7460  -30.5188  -35.9258 H   0  0  0  0  0  0  0  0  0  0  0  0
   -3.7189  -30.4554  -34.4807 H   0  0  0  0  0  0  0  0  0  0  0  0
   -3.5105  -31.7422  -35.6569 H   0  0  0  0  0  0  0  0  0  0  0  0
   -5.0782  -33.5799  -32.8542 H   0  0  0  0  0  0  0  0  0  0  0  0
   -4.1733  -32.1150  -32.5004 H   0  0  0  0  0  0  0  0  0  0  0  0
   -3.5716  -33.2272  -33.7209 H   0  0  0  0  0  0  0  0  0  0  0  0
   -5.1068  -30.0699  -32.3817 H   0  0  0  0  0  0  0  0  0  0  0  0
   -6.6997  -29.3485  -32.4884 H   0  0  0  0  0  0  0  0  0  0  0  0
   -5.5643  -29.1319  -33.8148 H   0  0  0  0  0  0  0  0  0  0  0  0
   -6.5843  -32.1081  -31.7737 H   0  0  0  0  0  0  0  0  0  0  0  0
   -7.5196  -32.9314  -33.0023 H   0  0  0  0  0  0  0  0  0  0  0  0
   -8.1128  -31.4139  -32.3017 H   0  0  0  0  0  0  0  0  0  0  0  0
  -21.5347  -25.1689  -38.4504 H   0  0  0  0  0  0  0  0  0  0  0  0
  -21.7274  -23.9329  -37.2054 H   0  0  0  0  0  0  0  0  0  0  0  0
  -19.7461  -22.7164  -38.0515 H   0  0  0  0  0  0  0  0  0  0  0  0
  -19.5691  -23.8630  -39.3821 H   0  0  0  0  0  0  0  0  0  0  0  0
  -19.3139  -24.5186  -36.3969 H   0  0  0  0  0  0  0  0  0  0  0  0
  -19.2866  -25.7225  -37.6807 H   0  0  0  0  0  0  0  0  0  0  0  0
  -17.2881  -23.4224  -37.4945 H   0  0  0  0  0  0  0  0  0  0  0  0
  -17.2876  -24.7324  -38.6707 H   0  0  0  0  0  0  0  0  0  0  0  0
  -16.8456  -25.0230  -35.6537 H   0  0  0  0  0  0  0  0  0  0  0  0
  -17.0258  -26.3840  -36.7652 H   0  0  0  0  0  0  0  0  0  0  0  0
  -15.0208  -25.6942  -38.0155 H   0  0  0  0  0  0  0  0  0  0  0  0
  -14.9332  -24.1795  -37.1229 H   0  0  0  0  0  0  0  0  0  0  0  0
  -14.4595  -26.9659  -35.9720 H   0  0  0  0  0  0  0  0  0  0  0  0
  -14.5846  -25.5025  -35.0018 H   0  0  0  0  0  0  0  0  0  0  0  0
  -12.6189  -24.5189  -36.0829 H   0  0  0  0  0  0  0  0  0  0  0  0
  -12.5282  -25.8452  -37.2450 H   0  0  0  0  0  0  0  0  0  0  0  0
  -12.3459  -26.3212  -34.2358 H   0  0  0  0  0  0  0  0  0  0  0  0
  -11.9499  -27.4485  -35.5355 H   0  0  0  0  0  0  0  0  0  0  0  0
   -9.9842  -26.1821  -36.1702 H   0  0  0  0  0  0  0  0  0  0  0  0
  -10.5036  -24.7738  -35.2520 H   0  0  0  0  0  0  0  0  0  0  0  0
   -8.6941  -25.8697  -34.0586 H   0  0  0  0  0  0  0  0  0  0  0  0
  -10.1769  -26.0121  -33.1106 H   0  0  0  0  0  0  0  0  0  0  0  0
   -8.0469  -31.5948  -35.2235 H   0  0  0  0  0  0  0  0  0  0  0  0
   -7.0181  -30.2316  -35.6853 H   0  0  0  0  0  0  0  0  0  0  0  0
  -10.2528  -28.3452  -33.5895 H   0  0  0  0  0  0  0  0  0  0  0  0
   -9.3224  -30.1820  -33.8841 H   0  0  0  0  0  0  0  0  0  0  0  0
  1 22  1  0  0  0  0
  1 23  1  0  0  0  0
  1 24  2  0  0  0  0
  2  8  1  0  0  0  0
  3 20  1  0  0  0  0
  4 20  1  0  0  0  0
  5 20  1  0  0  0  0
  6 21  1  0  0  0  0
  7 21  1  0  0  0  0
  8  9  1  0  0  0  0
  9 10  1  0  0  0  0
 10 11  1  0  0  0  0
 11 12  1  0  0  0  0
 12 13  1  0  0  0  0
 13 14  1  0  0  0  0
 14 15  1  0  0  0  0
 15 16  1  0  0  0  0
 16 17  1  0  0  0  0
 17 18  1  0  0  0  0
 18 22  1  0  0  0  0
 19 21  1  0  0  0  0
 19 23  1  0  0  0  0
 20 21  1  0  0  0  0
  2 25  1  0  0  0  0
  2 26  1  0  0  0  0
  2 27  1  0  0  0  0
  3 28  1  0  0  0  0
  3 29  1  0  0  0  0
  3 30  1  0  0  0  0
  4 31  1  0  0  0  0
  4 32  1  0  0  0  0
  4 33  1  0  0  0  0
  5 34  1  0  0  0  0
  5 35  1  0  0  0  0
  5 36  1  0  0  0  0
  6 37  1  0  0  0  0
  6 38  1  0  0  0  0
  6 39  1  0  0  0  0
  7 40  1  0  0  0  0
  7 41  1  0  0  0  0
  7 42  1  0  0  0  0
  8 43  1  0  0  0  0
  8 44  1  0  0  0  0
  9 45  1  0  0  0  0
  9 46  1  0  0  0  0
 10 47  1  0  0  0  0
 10 48  1  0  0  0  0
 11 49  1  0  0  0  0
 11 50  1  0  0  0  0
 12 51  1  0  0  0  0
 12 52  1  0  0  0  0
 13 53  1  0  0  0  0
 13 54  1  0  0  0  0
 14 55  1  0  0  0  0
 14 56  1  0  0  0  0
 15 57  1  0  0  0  0
 15 58  1  0  0  0  0
 16 59  1  0  0  0  0
 16 60  1  0  0  0  0
 17 61  1  0  0  0  0
 17 62  1  0  0  0  0
 18 63  1  0  0  0  0
 18 64  1  0  0  0  0
 19 65  1  0  0  0  0
 19 66  1  0  0  0  0
 22 67  1  0  0  0  0
 23 68  1  0  0  0  0
M  END
> <Name>
IA_203.cdx

> <SourceTag>
IA_203

> <Gold.Version>
5.2

> <Gold.Id.Protein>
6HGV|6HGV_protein|mol2

> <Gold.Goldscore.Fitness>
70.8729

> <Gold.Goldscore.Internal.Vdw>
-8.8830

> <Gold.Goldscore.Internal.Torsion>
-4.3170

> <Gold.Goldscore.External.Vdw>
52.6384

> <Gold.Goldscore.Internal.HBond>
0.0000

> <Gold.Goldscore.External.HBond>
0.0000

> <Gold.Goldscore.Internal.Correction>
-11.6951

> <Gold.Goldscore.Internal.Vdw.Weighted>
-8.8830

> <Gold.Goldscore.Internal.Torsion.Weighted>
-4.3170

> <Gold.Goldscore.External.Vdw.Weighted>
72.3779

> <Gold.Goldscore.Internal.HBond.Weighted>
0.0000

> <Gold.Goldscore.External.HBond.Weighted>
0.0000

> <Gold.Goldscore.Internal.Correction.Weighted>
-11.6951

> <Gold.Protein.RotatedTorsions>
[ 3781 1176 1175 1172 ] final -166.41 input   60.00 | X-H torsion
[ 3847 1247 1246 1244 ] final  103.59 input   60.00 | X-H torsion
[ 4507 1931 1930 1928 ] final  112.03 input   60.00 | X-H torsion
[ 3677 1070 1069 1066 ] final -120.00 input   60.00 | X-H torsion
[ 3525  925  924  922 ] final   47.34 input   59.99 | X-H torsion
[ 4531 1957 1955 1953 ] final  103.59 input   60.00 | X-H torsion

> <Gold.Protein.ActiveResidues>
 PHE267  PRO268  MET310  ASP335  TRP336  MET339  TYR343  THR360  PRO361  ILE363 
 PRO371  SER374  ILE375  ASN378  PHE381  TYR383  GLN384  PHE387  LEU408  LEU417 
 MET419  LEU428  TYR466  MET469  ASN472  ASP496  VAL498  LEU499  MET503  HIS524 
 TRP525 

> <Gold.Protein.RotatedAtoms>
   -2.9945  -29.7732  -30.8632 H   0  0  0  0  0  0  0  0  0  0  0  0  # atno 3525 bound_to 925 
  -11.4630  -23.5792  -31.4510 H   0  0  0  0  0  0  0  0  0  0  0  0  # atno 3677 bound_to 1070
   -9.2426  -36.4269  -33.0590 H   0  0  0  0  0  0  0  0  0  0  0  0  # atno 3781 bound_to 1176
  -14.3775  -28.5227  -37.6525 H   0  0  0  0  0  0  0  0  0  0  0  0  # atno 3847 bound_to 1247
  -12.4332  -24.0059  -39.2488 H   0  0  0  0  0  0  0  0  0  0  0  0  # atno 4507 bound_to 1931
   -2.6242  -33.9520  -36.7584 H   0  0  0  0  0  0  0  0  0  0  0  0  # atno 4531 bound_to 1957
  -10.4624  -37.4059  -32.6099 LP  0  0  0  0  0  0  0  0  0  0  0  0  # atno 5205 bound_to 1176
  -10.4113  -36.8035  -34.1269 LP  0  0  0  0  0  0  0  0  0  0  0  0  # atno 5206 bound_to 1176
  -15.8916  -28.5207  -37.0563 LP  0  0  0  0  0  0  0  0  0  0  0  0  # atno 5215 bound_to 1247
  -15.3010  -27.1906  -37.7969 LP  0  0  0  0  0  0  0  0  0  0  0  0  # atno 5216 bound_to 1247
  -13.3422  -25.3536  -39.1774 LP  0  0  0  0  0  0  0  0  0  0  0  0  # atno 5217 bound_to 1931
  -13.4239  -24.3787  -40.4848 LP  0  0  0  0  0  0  0  0  0  0  0  0  # atno 5218 bound_to 1931
  -11.5785  -22.1924  -30.6073 LP  0  0  0  0  0  0  0  0  0  0  0  0  # atno 5224 bound_to 1070
  -12.8160  -23.2579  -30.6058 LP  0  0  0  0  0  0  0  0  0  0  0  0  # atno 5225 bound_to 1070

$$$$
IA_190.cdx|SeH_inactivess_minimized|sdf|91|dock8
  -GOLD-   4172120303D 1   1.00000     0.00000

 26 26  0  0  0  0  0  0  0  0  1 V2000
  -10.2924  -25.2639  -35.0642 C   0  0  0  0  0  0  0  0  0  0  0  0
  -10.8536  -27.0616  -36.5778 C   0  0  0  0  0  0  0  0  0  0  0  0
   -9.1813  -25.9823  -34.6228 C   0  0  0  0  0  0  0  0  0  0  0  0
   -9.7424  -27.7801  -36.1364 C   0  0  0  0  0  0  0  0  0  0  0  0
  -11.1286  -25.8036  -36.0417 C   0  0  0  0  0  0  0  0  0  0  0  0
   -8.9063  -27.2405  -35.1588 C   0  0  0  0  0  0  0  0  0  0  0  0
  -13.4663  -25.5691  -36.9310 C   0  0  0  0  0  0  0  0  0  0  0  0
  -16.4461  -25.3672  -36.6744 C   0  0  0  0  0  0  0  0  0  0  0  0
  -16.1585  -23.6316  -38.4792 C   0  0  0  0  0  0  0  0  0  0  0  0
  -15.5601  -24.8537  -37.7992 C   0  0  0  0  0  0  0  0  0  0  0  0
  -12.2395  -25.0847  -36.4834 N   0  0  0  0  0  0  0  0  0  0  0  0
  -13.8092  -26.7415  -37.0242 O   0  0  0  0  0  0  0  0  0  0  0  0
  -14.2734  -24.5155  -37.2687 O   0  0  0  0  0  0  0  0  0  0  0  0
   -7.5352  -28.1269  -34.6140 Cl  0  0  0  0  0  0  0  0  0  0  0  0
  -10.4976  -24.2846  -34.6395 H   0  0  0  0  0  0  0  0  0  0  0  0
  -11.4984  -27.4914  -37.3399 H   0  0  0  0  0  0  0  0  0  0  0  0
   -8.5383  -25.5498  -33.8608 H   0  0  0  0  0  0  0  0  0  0  0  0
   -9.5402  -28.7593  -36.5625 H   0  0  0  0  0  0  0  0  0  0  0  0
  -16.6416  -24.5853  -35.9344 H   0  0  0  0  0  0  0  0  0  0  0  0
  -17.4035  -25.7185  -37.0737 H   0  0  0  0  0  0  0  0  0  0  0  0
  -15.9845  -26.2219  -36.1676 H   0  0  0  0  0  0  0  0  0  0  0  0
  -17.1536  -23.8474  -38.8800 H   0  0  0  0  0  0  0  0  0  0  0  0
  -15.5149  -23.2992  -39.3006 H   0  0  0  0  0  0  0  0  0  0  0  0
  -16.2368  -22.7910  -37.7810 H   0  0  0  0  0  0  0  0  0  0  0  0
  -15.4117  -25.6473  -38.5387 H   0  0  0  0  0  0  0  0  0  0  0  0
  -12.1397  -24.0642  -36.4779 H   0  0  0  0  0  0  0  0  0  0  0  0
  1  3  2  0  0  0  0
  1  5  1  0  0  0  0
  2  4  1  0  0  0  0
  2  5  2  0  0  0  0
  3  6  1  0  0  0  0
  4  6  2  0  0  0  0
  5 11  1  0  0  0  0
  6 14  1  0  0  0  0
  7 11  1  0  0  0  0
  7 12  2  0  0  0  0
  7 13  1  0  0  0  0
  8 10  1  0  0  0  0
  9 10  1  0  0  0  0
 10 13  1  0  0  0  0
  1 15  1  0  0  0  0
  2 16  1  0  0  0  0
  3 17  1  0  0  0  0
  4 18  1  0  0  0  0
  8 19  1  0  0  0  0
  8 20  1  0  0  0  0
  8 21  1  0  0  0  0
  9 22  1  0  0  0  0
  9 23  1  0  0  0  0
  9 24  1  0  0  0  0
 10 25  1  0  0  0  0
 11 26  1  0  0  0  0
M  END
> <Name>
IA_190.cdx

> <SourceTag>
IA_190

> <Gold.Version>
5.2

> <Gold.Id.Protein>
6HGV|6HGV_protein|mol2

> <Gold.Goldscore.Fitness>
49.7588

> <Gold.Goldscore.Internal.Vdw>
-1.7970

> <Gold.Goldscore.Internal.Torsion>
-2.3342

> <Gold.Goldscore.External.Vdw>
34.7690

> <Gold.Goldscore.Internal.HBond>
0.0000

> <Gold.Goldscore.External.HBond>
2.1901

> <Gold.Goldscore.Internal.Correction>
-3.8924

> <Gold.Goldscore.Hbonds>
donor molecule, donor type, donor heavy atom, donor atom, acceptor molecule, acceptor atom, score
      P1  H  1247  3847       L1    12  0.02
      L1  H    11    26       P1   854  0.36

> <Gold.Goldscore.Internal.Vdw.Weighted>
-1.7970

> <Gold.Goldscore.Internal.Torsion.Weighted>
-2.3342

> <Gold.Goldscore.External.Vdw.Weighted>
47.8074

> <Gold.Goldscore.Internal.HBond.Weighted>
0.0000

> <Gold.Goldscore.External.HBond.Weighted>
2.1901

> <Gold.Goldscore.Internal.Correction.Weighted>
-3.8924

> <Gold.Protein.RotatedTorsions>
[ 3781 1176 1175 1172 ] final  126.78 input   60.00 | X-H torsion
[ 3847 1247 1246 1244 ] final  144.91 input   60.00 | X-H torsion
[ 4507 1931 1930 1928 ] final  115.86 input   60.00 | X-H torsion
[ 3677 1070 1069 1066 ] final -132.95 input   60.00 | X-H torsion
[ 3525  925  924  922 ] final  -44.28 input   59.99 | X-H torsion
[ 4531 1957 1955 1953 ] final -137.34 input   60.00 | X-H torsion

> <Gold.Protein.ActiveResidues>
 PHE267  PRO268  MET310  ASP335  TRP336  MET339  TYR343  THR360  PRO361  ILE363 
 PRO371  SER374  ILE375  ASN378  PHE381  TYR383  GLN384  PHE387  LEU408  LEU417 
 MET419  LEU428  TYR466  MET469  ASN472  ASP496  VAL498  LEU499  MET503  HIS524 
 TRP525 

> <Gold.Protein.RotatedAtoms>
   -3.7661  -29.5349  -29.7905 H   0  0  0  0  0  0  0  0  0  0  0  0  # atno 3525 bound_to 925 
  -11.3164  -23.4278  -31.4368 H   0  0  0  0  0  0  0  0  0  0  0  0  # atno 3677 bound_to 1070
   -9.7506  -37.0184  -32.3846 H   0  0  0  0  0  0  0  0  0  0  0  0  # atno 3781 bound_to 1176
  -14.3559  -27.9089  -37.8958 H   0  0  0  0  0  0  0  0  0  0  0  0  # atno 3847 bound_to 1247
  -12.4377  -23.9698  -39.2998 H   0  0  0  0  0  0  0  0  0  0  0  0  # atno 4507 bound_to 1931
   -1.2593  -33.1262  -37.0036 H   0  0  0  0  0  0  0  0  0  0  0  0  # atno 4531 bound_to 1957
  -10.8272  -37.2879  -33.5746 LP  0  0  0  0  0  0  0  0  0  0  0  0  # atno 5205 bound_to 1176
   -9.5349  -36.3258  -33.8413 LP  0  0  0  0  0  0  0  0  0  0  0  0  # atno 5206 bound_to 1176
  -15.3620  -28.9193  -37.1117 LP  0  0  0  0  0  0  0  0  0  0  0  0  # atno 5215 bound_to 1247
  -15.8524  -27.4100  -37.4966 LP  0  0  0  0  0  0  0  0  0  0  0  0  # atno 5216 bound_to 1247
  -13.3033  -25.3373  -39.1305 LP  0  0  0  0  0  0  0  0  0  0  0  0  # atno 5217 bound_to 1931
  -13.4583  -24.4313  -40.4803 LP  0  0  0  0  0  0  0  0  0  0  0  0  # atno 5218 bound_to 1931
  -11.7634  -22.1713  -30.5044 LP  0  0  0  0  0  0  0  0  0  0  0  0  # atno 5224 bound_to 1070
  -12.7787  -23.4314  -30.7229 LP  0  0  0  0  0  0  0  0  0  0  0  0  # atno 5225 bound_to 1070

$$$$
IA_158.cdx|SeH_inactivess_minimized|sdf|59|dock3
  -GOLD-   4172119533D 1   1.00000     0.00000

 23 22  0  0  0  0  0  0  0  0  1 V2000
  -11.7925  -24.8669  -36.4673 C   0  0  0  0  0  0  0  0  0  0  0  0
  -15.2167  -25.2554  -37.0428 C   0  0  0  0  0  0  0  0  0  0  0  0
  -11.4706  -25.2541  -33.6555 C   0  0  0  0  0  0  0  0  0  0  0  0
  -11.3298  -27.1875  -35.2549 C   0  0  0  0  0  0  0  0  0  0  0  0
   -9.2259  -26.0856  -34.4330 C   0  0  0  0  0  0  0  0  0  0  0  0
  -13.8882  -25.6121  -36.4081 C   0  0  0  0  0  0  0  0  0  0  0  0
  -10.6899  -25.8709  -34.8157 C   0  0  0  0  0  0  0  0  0  0  0  0
  -12.8378  -24.7764  -36.9948 N   0  0  0  0  0  0  0  0  0  0  0  0
  -10.7408  -24.9432  -35.9544 N   0  0  0  0  0  0  0  0  0  0  0  0
  -15.2001  -25.4731  -38.1150 H   0  0  0  0  0  0  0  0  0  0  0  0
  -16.0334  -25.8260  -36.5883 H   0  0  0  0  0  0  0  0  0  0  0  0
  -15.4401  -24.1914  -36.9109 H   0  0  0  0  0  0  0  0  0  0  0  0
  -12.3666  -24.7350  -34.0143 H   0  0  0  0  0  0  0  0  0  0  0  0
  -11.7870  -26.0193  -32.9382 H   0  0  0  0  0  0  0  0  0  0  0  0
  -10.8633  -24.5171  -33.1175 H   0  0  0  0  0  0  0  0  0  0  0  0
  -12.3570  -27.2716  -34.8818 H   0  0  0  0  0  0  0  0  0  0  0  0
  -10.7728  -28.0473  -34.8647 H   0  0  0  0  0  0  0  0  0  0  0  0
  -11.3588  -27.2708  -36.3468 H   0  0  0  0  0  0  0  0  0  0  0  0
   -8.7326  -25.1335  -34.2061 H   0  0  0  0  0  0  0  0  0  0  0  0
   -9.1360  -26.7309  -33.5524 H   0  0  0  0  0  0  0  0  0  0  0  0
   -8.6676  -26.5517  -35.2529 H   0  0  0  0  0  0  0  0  0  0  0  0
  -13.6548  -26.6668  -36.5827 H   0  0  0  0  0  0  0  0  0  0  0  0
  -13.9260  -25.4440  -35.3274 H   0  0  0  0  0  0  0  0  0  0  0  0
  1  8  2  0  0  0  0
  1  9  2  0  0  0  0
  2  6  1  0  0  0  0
  3  7  1  0  0  0  0
  4  7  1  0  0  0  0
  5  7  1  0  0  0  0
  6  8  1  0  0  0  0
  7  9  1  0  0  0  0
  2 10  1  0  0  0  0
  2 11  1  0  0  0  0
  2 12  1  0  0  0  0
  3 13  1  0  0  0  0
  3 14  1  0  0  0  0
  3 15  1  0  0  0  0
  4 16  1  0  0  0  0
  4 17  1  0  0  0  0
  4 18  1  0  0  0  0
  5 19  1  0  0  0  0
  5 20  1  0  0  0  0
  5 21  1  0  0  0  0
  6 22  1  0  0  0  0
  6 23  1  0  0  0  0
M  END
> <Name>
IA_158.cdx

> <SourceTag>
IA_158

> <Gold.Version>
5.2

> <Gold.Id.Protein>
6HGV|6HGV_protein|mol2

> <Gold.Goldscore.Fitness>
37.6655

> <Gold.Goldscore.Internal.Vdw>
-7.6994

> <Gold.Goldscore.Internal.Torsion>
-5.2753

> <Gold.Goldscore.External.Vdw>
27.2259

> <Gold.Goldscore.Internal.HBond>
0.0000

> <Gold.Goldscore.External.HBond>
1.6397

> <Gold.Goldscore.Internal.Correction>
-11.5649

> <Gold.Goldscore.Hbonds>
donor molecule, donor type, donor heavy atom, donor atom, acceptor molecule, acceptor atom, score
      P1  H  1931  4507       L1     8  0.82

> <Gold.Goldscore.Internal.Vdw.Weighted>
-7.6994

> <Gold.Goldscore.Internal.Torsion.Weighted>
-5.2753

> <Gold.Goldscore.External.Vdw.Weighted>
37.4357

> <Gold.Goldscore.Internal.HBond.Weighted>
0.0000

> <Gold.Goldscore.External.HBond.Weighted>
1.6397

> <Gold.Goldscore.Internal.Correction.Weighted>
-11.5649

> <Gold.Protein.RotatedTorsions>
[ 3781 1176 1175 1172 ] final  112.10 input   60.00 | X-H torsion
[ 3847 1247 1246 1244 ] final  -19.39 input   60.00 | X-H torsion
[ 4507 1931 1930 1928 ] final   42.43 input   60.00 | X-H torsion
[ 3677 1070 1069 1066 ] final  -64.18 input   60.00 | X-H torsion
[ 3525  925  924  922 ] final  -30.86 input   59.99 | X-H torsion
[ 4531 1957 1955 1953 ] final -118.58 input   60.00 | X-H torsion

> <Gold.Protein.ActiveResidues>
 PHE267  PRO268  MET310  ASP335  TRP336  MET339  TYR343  THR360  PRO361  ILE363 
 PRO371  SER374  ILE375  ASN378  PHE381  TYR383  GLN384  PHE387  LEU408  LEU417 
 MET419  LEU428  TYR466  MET469  ASN472  ASP496  VAL498  LEU499  MET503  HIS524 
 TRP525 

> <Gold.Protein.RotatedAtoms>
   -3.7671  -29.5145  -30.0085 H   0  0  0  0  0  0  0  0  0  0  0  0  # atno 3525 bound_to 925 
  -12.2637  -23.8360  -31.2035 H   0  0  0  0  0  0  0  0  0  0  0  0  # atno 3677 bound_to 1070
   -9.9477  -37.1536  -32.3746 H   0  0  0  0  0  0  0  0  0  0  0  0  # atno 3781 bound_to 1176
  -15.9144  -28.4780  -37.0664 H   0  0  0  0  0  0  0  0  0  0  0  0  # atno 3847 bound_to 1247
  -12.8001  -24.9030  -38.7990 H   0  0  0  0  0  0  0  0  0  0  0  0  # atno 4507 bound_to 1931
   -1.3088  -32.8254  -36.9890 H   0  0  0  0  0  0  0  0  0  0  0  0  # atno 4531 bound_to 1957
  -10.7700  -37.1733  -33.7787 LP  0  0  0  0  0  0  0  0  0  0  0  0  # atno 5205 bound_to 1176
   -9.3937  -36.3043  -33.6473 LP  0  0  0  0  0  0  0  0  0  0  0  0  # atno 5206 bound_to 1176
  -15.2551  -27.1919  -37.8145 LP  0  0  0  0  0  0  0  0  0  0  0  0  # atno 5215 bound_to 1247
  -14.3899  -28.5644  -37.6290 LP  0  0  0  0  0  0  0  0  0  0  0  0  # atno 5216 bound_to 1247
  -13.6995  -25.0527  -40.1468 LP  0  0  0  0  0  0  0  0  0  0  0  0  # atno 5217 bound_to 1931
  -12.6970  -23.7761  -39.9684 LP  0  0  0  0  0  0  0  0  0  0  0  0  # atno 5218 bound_to 1931
  -11.0946  -22.7059  -31.1377 LP  0  0  0  0  0  0  0  0  0  0  0  0  # atno 5224 bound_to 1070
  -12.4936  -22.4859  -30.3246 LP  0  0  0  0  0  0  0  0  0  0  0  0  # atno 5225 bound_to 1070

$$$$
IA_168.cdx|SeH_inactivess_minimized|sdf|70|dock2
  -GOLD-   4172120 83D 1   1.00000     0.00000

 34 35  0  0  0  0  0  0  0  0  1 V2000
   -9.0000  -27.7238  -35.1666 C   0  0  0  0  0  0  0  0  0  0  0  0
  -18.9736  -25.1529  -36.6066 C   0  0  0  0  0  0  0  0  0  0  0  0
   -9.8400  -28.0857  -36.2197 C   0  0  0  0  0  0  0  0  0  0  0  0
  -18.3812  -25.1500  -35.3439 C   0  0  0  0  0  0  0  0  0  0  0  0
   -9.3339  -26.6458  -34.3469 C   0  0  0  0  0  0  0  0  0  0  0  0
  -18.1771  -25.1056  -37.7508 C   0  0  0  0  0  0  0  0  0  0  0  0
  -11.0139  -27.3695  -36.4532 C   0  0  0  0  0  0  0  0  0  0  0  0
  -16.9923  -25.0999  -35.2252 C   0  0  0  0  0  0  0  0  0  0  0  0
  -10.5078  -25.9296  -34.5803 C   0  0  0  0  0  0  0  0  0  0  0  0
  -16.7883  -25.0554  -37.6321 C   0  0  0  0  0  0  0  0  0  0  0  0
  -11.3479  -26.2914  -35.6334 C   0  0  0  0  0  0  0  0  0  0  0  0
  -16.1958  -25.0525  -36.3693 C   0  0  0  0  0  0  0  0  0  0  0  0
  -13.8646  -25.9962  -35.9542 C   0  0  0  0  0  0  0  0  0  0  0  0
  -10.8403  -24.7793  -33.6862 C   0  0  0  0  0  0  0  0  0  0  0  0
  -15.9601  -25.0054  -38.8750 C   0  0  0  0  0  0  0  0  0  0  0  0
  -12.5279  -25.5863  -35.8836 N   0  0  0  0  0  0  0  0  0  0  0  0
  -14.7864  -25.0019  -36.2277 N   0  0  0  0  0  0  0  0  0  0  0  0
  -14.2019  -27.6002  -35.5621 S   0  0  0  0  0  0  0  0  0  0  0  0
   -8.0857  -28.2810  -34.9849 H   0  0  0  0  0  0  0  0  0  0  0  0
  -20.0549  -25.1913  -36.6993 H   0  0  0  0  0  0  0  0  0  0  0  0
   -9.5795  -28.9247  -36.8585 H   0  0  0  0  0  0  0  0  0  0  0  0
  -19.0015  -25.1859  -34.4528 H   0  0  0  0  0  0  0  0  0  0  0  0
   -8.6726  -26.3718  -33.5292 H   0  0  0  0  0  0  0  0  0  0  0  0
  -18.6485  -25.1079  -38.7300 H   0  0  0  0  0  0  0  0  0  0  0  0
  -11.6602  -27.6616  -37.2768 H   0  0  0  0  0  0  0  0  0  0  0  0
  -16.5428  -25.0985  -34.2355 H   0  0  0  0  0  0  0  0  0  0  0  0
  -11.6815  -25.0376  -33.0331 H   0  0  0  0  0  0  0  0  0  0  0  0
   -9.9828  -24.5038  -33.0606 H   0  0  0  0  0  0  0  0  0  0  0  0
  -11.1096  -23.8903  -34.2694 H   0  0  0  0  0  0  0  0  0  0  0  0
  -15.7401  -23.9657  -39.1423 H   0  0  0  0  0  0  0  0  0  0  0  0
  -15.0123  -25.5406  -38.7405 H   0  0  0  0  0  0  0  0  0  0  0  0
  -16.4796  -25.4811  -39.7157 H   0  0  0  0  0  0  0  0  0  0  0  0
  -12.4163  -24.5742  -36.0133 H   0  0  0  0  0  0  0  0  0  0  0  0
  -14.4055  -24.0589  -36.2364 H   0  0  0  0  0  0  0  0  0  0  0  0
  1  3  1  0  0  0  0
  1  5  2  0  0  0  0
  2  4  1  0  0  0  0
  2  6  2  0  0  0  0
  3  7  2  0  0  0  0
  4  8  2  0  0  0  0
  5  9  1  0  0  0  0
  6 10  1  0  0  0  0
  7 11  1  0  0  0  0
  8 12  1  0  0  0  0
  9 11  2  0  0  0  0
  9 14  1  0  0  0  0
 10 12  2  0  0  0  0
 10 15  1  0  0  0  0
 11 16  1  0  0  0  0
 12 17  1  0  0  0  0
 13 16  1  0  0  0  0
 13 17  1  0  0  0  0
 13 18  2  0  0  0  0
  1 19  1  0  0  0  0
  2 20  1  0  0  0  0
  3 21  1  0  0  0  0
  4 22  1  0  0  0  0
  5 23  1  0  0  0  0
  6 24  1  0  0  0  0
  7 25  1  0  0  0  0
  8 26  1  0  0  0  0
 14 27  1  0  0  0  0
 14 28  1  0  0  0  0
 14 29  1  0  0  0  0
 15 30  1  0  0  0  0
 15 31  1  0  0  0  0
 15 32  1  0  0  0  0
 16 33  1  0  0  0  0
 17 34  1  0  0  0  0
M  END
> <Name>
IA_168.cdx

> <SourceTag>
IA_168

> <Gold.Version>
5.2

> <Gold.Id.Protein>
6HGV|6HGV_protein|mol2

> <Gold.Goldscore.Fitness>
61.6428

> <Gold.Goldscore.Internal.Vdw>
1.5673

> <Gold.Goldscore.Internal.Torsion>
-11.3914

> <Gold.Goldscore.External.Vdw>
45.4405

> <Gold.Goldscore.Internal.HBond>
0.0000

> <Gold.Goldscore.External.HBond>
1.9143

> <Gold.Goldscore.Internal.Correction>
-7.0720

> <Gold.Goldscore.Hbonds>
donor molecule, donor type, donor heavy atom, donor atom, acceptor molecule, acceptor atom, score
      L1  H    16    33       P1   854  0.18
      L1  H    17    34       P1   853  0.14

> <Gold.Goldscore.Internal.Vdw.Weighted>
1.5673

> <Gold.Goldscore.Internal.Torsion.Weighted>
-11.3914

> <Gold.Goldscore.External.Vdw.Weighted>
62.4807

> <Gold.Goldscore.Internal.HBond.Weighted>
0.0000

> <Gold.Goldscore.External.HBond.Weighted>
1.9143

> <Gold.Goldscore.Internal.Correction.Weighted>
-7.0720

> <Gold.Protein.RotatedTorsions>
[ 3781 1176 1175 1172 ] final  134.69 input   60.00 | X-H torsion
[ 3847 1247 1246 1244 ] final  -77.05 input   60.00 | X-H torsion
[ 4507 1931 1930 1928 ] final   61.90 input   60.00 | X-H torsion
[ 3677 1070 1069 1066 ] final -170.60 input   60.00 | X-H torsion
[ 3525  925  924  922 ] final  -78.77 input   59.99 | X-H torsion
[ 4531 1957 1955 1953 ] final  165.08 input   60.00 | X-H torsion

> <Gold.Protein.ActiveResidues>
 PHE267  PRO268  MET310  ASP335  TRP336  MET339  TYR343  THR360  PRO361  ILE363 
 PRO371  SER374  ILE375  ASN378  PHE381  TYR383  GLN384  PHE387  LEU408  LEU417 
 MET419  LEU428  TYR466  MET469  ASN472  ASP496  VAL498  LEU499  MET503  HIS524 
 TRP525 

> <Gold.Protein.RotatedAtoms>
   -3.5569  -29.6714  -29.2949 H   0  0  0  0  0  0  0  0  0  0  0  0  # atno 3525 bound_to 925 
  -11.0929  -22.8999  -31.2461 H   0  0  0  0  0  0  0  0  0  0  0  0  # atno 3677 bound_to 1070
   -9.6514  -36.9412  -32.4140 H   0  0  0  0  0  0  0  0  0  0  0  0  # atno 3781 bound_to 1176
  -15.9960  -27.6279  -37.3596 H   0  0  0  0  0  0  0  0  0  0  0  0  # atno 3847 bound_to 1247
  -12.6236  -24.6405  -38.8128 H   0  0  0  0  0  0  0  0  0  0  0  0  # atno 4507 bound_to 1931
   -1.6842  -33.9188  -36.9365 H   0  0  0  0  0  0  0  0  0  0  0  0  # atno 4531 bound_to 1957
  -10.8368  -37.3389  -33.4555 LP  0  0  0  0  0  0  0  0  0  0  0  0  # atno 5205 bound_to 1176
   -9.6253  -36.3526  -33.9309 LP  0  0  0  0  0  0  0  0  0  0  0  0  # atno 5206 bound_to 1176
  -14.4781  -27.6455  -37.9459 LP  0  0  0  0  0  0  0  0  0  0  0  0  # atno 5215 bound_to 1247
  -15.0846  -28.9669  -37.2024 LP  0  0  0  0  0  0  0  0  0  0  0  0  # atno 5216 bound_to 1247
  -13.6831  -25.2426  -39.8912 LP  0  0  0  0  0  0  0  0  0  0  0  0  # atno 5217 bound_to 1931
  -12.8912  -23.8505  -40.2100 LP  0  0  0  0  0  0  0  0  0  0  0  0  # atno 5218 bound_to 1931
  -12.3196  -22.3467  -30.3309 LP  0  0  0  0  0  0  0  0  0  0  0  0  # atno 5224 bound_to 1070
  -12.4476  -23.7876  -31.0886 LP  0  0  0  0  0  0  0  0  0  0  0  0  # atno 5225 bound_to 1070

$$$$
IA_131.cdx|SeH_inactivess_minimized|sdf|33|dock10
  -GOLD-   4172119203D 1   1.00000     0.00000

 42 42  0  0  0  0  0  0  0  0  1 V2000
   -8.6433  -32.0861  -33.6191 C   0  0  0  0  0  0  0  0  0  0  0  0
   -9.5839  -33.0673  -33.3060 C   0  0  0  0  0  0  0  0  0  0  0  0
   -9.8374  -31.5927  -35.6606 C   0  0  0  0  0  0  0  0  0  0  0  0
   -8.7701  -31.3487  -34.7964 C   0  0  0  0  0  0  0  0  0  0  0  0
  -10.6512  -33.3113  -34.1702 C   0  0  0  0  0  0  0  0  0  0  0  0
  -10.7780  -32.5740  -35.3475 C   0  0  0  0  0  0  0  0  0  0  0  0
  -12.1051  -24.9889  -36.5475 C   0  0  0  0  0  0  0  0  0  0  0  0
   -6.4299  -30.6921  -35.3196 C   0  0  0  0  0  0  0  0  0  0  0  0
   -7.2573  -32.9309  -36.1081 C   0  0  0  0  0  0  0  0  0  0  0  0
   -4.8967  -32.6748  -35.4308 C   0  0  0  0  0  0  0  0  0  0  0  0
  -11.2193  -25.3721  -35.3843 C   0  0  0  0  0  0  0  0  0  0  0  0
  -10.6037  -26.7594  -35.5676 C   0  0  0  0  0  0  0  0  0  0  0  0
   -9.7863  -27.1690  -34.3410 C   0  0  0  0  0  0  0  0  0  0  0  0
   -9.3934  -28.6483  -34.3393 C   0  0  0  0  0  0  0  0  0  0  0  0
   -8.2040  -28.9603  -35.2405 C   0  0  0  0  0  0  0  0  0  0  0  0
   -7.7985  -30.3347  -35.1191 N   0  0  0  0  0  0  0  0  0  0  0  0
   -6.2010  -32.0521  -35.6090 N   0  0  0  0  0  0  0  0  0  0  0  0
  -11.9790  -23.9858  -37.2358 O   0  0  0  0  0  0  0  0  0  0  0  0
   -5.4999  -29.8843  -35.2052 O   0  0  0  0  0  0  0  0  0  0  0  0
  -13.0854  -25.9082  -36.7485 O   0  0  0  0  0  0  0  0  0  0  0  0
  -11.7817  -34.5421  -33.7280 Cl  0  0  0  0  0  0  0  0  0  0  0  0
  -12.0769  -32.8314  -36.4590 Cl  0  0  0  0  0  0  0  0  0  0  0  0
   -7.8162  -31.9029  -32.9380 H   0  0  0  0  0  0  0  0  0  0  0  0
   -9.4702  -33.6312  -32.3835 H   0  0  0  0  0  0  0  0  0  0  0  0
   -9.9303  -31.0152  -36.5782 H   0  0  0  0  0  0  0  0  0  0  0  0
   -7.7833  -33.3986  -35.2717 H   0  0  0  0  0  0  0  0  0  0  0  0
   -6.8298  -33.7157  -36.7381 H   0  0  0  0  0  0  0  0  0  0  0  0
   -7.9764  -32.3588  -36.7006 H   0  0  0  0  0  0  0  0  0  0  0  0
   -4.5224  -33.0438  -36.3892 H   0  0  0  0  0  0  0  0  0  0  0  0
   -4.9708  -33.5150  -34.7350 H   0  0  0  0  0  0  0  0  0  0  0  0
   -4.1832  -31.9498  -35.0300 H   0  0  0  0  0  0  0  0  0  0  0  0
  -11.8262  -25.3563  -34.4721 H   0  0  0  0  0  0  0  0  0  0  0  0
  -10.4239  -24.6233  -35.3001 H   0  0  0  0  0  0  0  0  0  0  0  0
   -9.9628  -26.7632  -36.4578 H   0  0  0  0  0  0  0  0  0  0  0  0
  -11.4035  -27.4868  -35.7492 H   0  0  0  0  0  0  0  0  0  0  0  0
   -8.8670  -26.5713  -34.3072 H   0  0  0  0  0  0  0  0  0  0  0  0
  -10.3474  -26.9370  -33.4275 H   0  0  0  0  0  0  0  0  0  0  0  0
  -10.2596  -29.2351  -34.6711 H   0  0  0  0  0  0  0  0  0  0  0  0
   -9.1780  -28.9748  -33.3141 H   0  0  0  0  0  0  0  0  0  0  0  0
   -7.3359  -28.3482  -34.9800 H   0  0  0  0  0  0  0  0  0  0  0  0
   -8.4509  -28.7862  -36.2922 H   0  0  0  0  0  0  0  0  0  0  0  0
  -13.6939  -25.7082  -37.4917 H   0  0  0  0  0  0  0  0  0  0  0  0
  1  2  1  0  0  0  0
  1  4  2  0  0  0  0
  2  5  2  0  0  0  0
  3  4  1  0  0  0  0
  3  6  2  0  0  0  0
  4 16  1  0  0  0  0
  5  6  1  0  0  0  0
  5 21  1  0  0  0  0
  6 22  1  0  0  0  0
  7 11  1  0  0  0  0
  7 18  2  0  0  0  0
  7 20  1  0  0  0  0
  8 16  1  0  0  0  0
  8 17  1  0  0  0  0
  8 19  2  0  0  0  0
  9 17  1  0  0  0  0
 10 17  1  0  0  0  0
 11 12  1  0  0  0  0
 12 13  1  0  0  0  0
 13 14  1  0  0  0  0
 14 15  1  0  0  0  0
 15 16  1  0  0  0  0
  1 23  1  0  0  0  0
  2 24  1  0  0  0  0
  3 25  1  0  0  0  0
  9 26  1  0  0  0  0
  9 27  1  0  0  0  0
  9 28  1  0  0  0  0
 10 29  1  0  0  0  0
 10 30  1  0  0  0  0
 10 31  1  0  0  0  0
 11 32  1  0  0  0  0
 11 33  1  0  0  0  0
 12 34  1  0  0  0  0
 12 35  1  0  0  0  0
 13 36  1  0  0  0  0
 13 37  1  0  0  0  0
 14 38  1  0  0  0  0
 14 39  1  0  0  0  0
 15 40  1  0  0  0  0
 15 41  1  0  0  0  0
 20 42  1  0  0  0  0
M  END
> <Name>
IA_131.cdx

> <SourceTag>
IA_131

> <Gold.Version>
5.2

> <Gold.Id.Protein>
6HGV|6HGV_protein|mol2

> <Gold.Goldscore.Fitness>
57.3891

> <Gold.Goldscore.Internal.Vdw>
-14.3910

> <Gold.Goldscore.Internal.Torsion>
-14.4725

> <Gold.Goldscore.External.Vdw>
42.9167

> <Gold.Goldscore.Internal.HBond>
0.0000

> <Gold.Goldscore.External.HBond>
1.8169

> <Gold.Goldscore.Internal.Correction>
-25.4253

> <Gold.Goldscore.Hbonds>
donor molecule, donor type, donor heavy atom, donor atom, acceptor molecule, acceptor atom, score
      P1  H  1931  4507       L1    18  0.68
      P1  H  1994  4571       L1    19  0.23

> <Gold.Goldscore.Internal.Vdw.Weighted>
-14.3910

> <Gold.Goldscore.Internal.Torsion.Weighted>
-14.4725

> <Gold.Goldscore.External.Vdw.Weighted>
59.0105

> <Gold.Goldscore.Internal.HBond.Weighted>
0.0000

> <Gold.Goldscore.External.HBond.Weighted>
1.8169

> <Gold.Goldscore.Internal.Correction.Weighted>
-25.4253

> <Gold.Protein.RotatedTorsions>
[ 3781 1176 1175 1172 ] final -146.04 input   60.00 | X-H torsion
[ 3847 1247 1246 1244 ] final  107.39 input   60.00 | X-H torsion
[ 4507 1931 1930 1928 ] final   84.42 input   60.00 | X-H torsion
[ 3677 1070 1069 1066 ] final   31.07 input   60.00 | X-H torsion
[ 3525  925  924  922 ] final   72.62 input   59.99 | X-H torsion
[ 4531 1957 1955 1953 ] final  -51.02 input   60.00 | X-H torsion

> <Gold.Protein.ActiveResidues>
 PHE267  PRO268  MET310  ASP335  TRP336  MET339  TYR343  THR360  PRO361  ILE363 
 PRO371  SER374  ILE375  ASN378  PHE381  TYR383  GLN384  PHE387  LEU408  LEU417 
 MET419  LEU428  TYR466  MET469  ASN472  ASP496  VAL498  LEU499  MET503  HIS524 
 TRP525 

> <Gold.Protein.RotatedAtoms>
   -2.6216  -29.9391  -30.8264 H   0  0  0  0  0  0  0  0  0  0  0  0  # atno 3525 bound_to 925 
  -12.7208  -22.8109  -30.3950 H   0  0  0  0  0  0  0  0  0  0  0  0  # atno 3677 bound_to 1070
   -9.2820  -36.3349  -33.3746 H   0  0  0  0  0  0  0  0  0  0  0  0  # atno 3781 bound_to 1176
  -14.3569  -28.4712  -37.6803 H   0  0  0  0  0  0  0  0  0  0  0  0  # atno 3847 bound_to 1247
  -12.4833  -24.3301  -38.9457 H   0  0  0  0  0  0  0  0  0  0  0  0  # atno 4507 bound_to 1931
   -2.1222  -32.1968  -36.8235 H   0  0  0  0  0  0  0  0  0  0  0  0  # atno 4531 bound_to 1957
  -10.2001  -37.2961  -32.4358 LP  0  0  0  0  0  0  0  0  0  0  0  0  # atno 5205 bound_to 1176
  -10.6339  -37.0059  -33.9831 LP  0  0  0  0  0  0  0  0  0  0  0  0  # atno 5206 bound_to 1176
  -15.8545  -28.5708  -37.0517 LP  0  0  0  0  0  0  0  0  0  0  0  0  # atno 5215 bound_to 1247
  -15.3589  -27.1924  -37.7735 LP  0  0  0  0  0  0  0  0  0  0  0  0  # atno 5216 bound_to 1247
  -13.5765  -25.3664  -39.5612 LP  0  0  0  0  0  0  0  0  0  0  0  0  # atno 5217 bound_to 1931
  -13.1391  -24.0393  -40.4062 LP  0  0  0  0  0  0  0  0  0  0  0  0  # atno 5218 bound_to 1931
  -11.8996  -23.8176  -31.3750 LP  0  0  0  0  0  0  0  0  0  0  0  0  # atno 5224 bound_to 1070
  -11.2282  -22.4064  -30.9014 LP  0  0  0  0  0  0  0  0  0  0  0  0  # atno 5225 bound_to 1070

$$$$
IA_139.cdx|SeH_inactivess_minimized|sdf|41|dock4
  -GOLD-   4172119303D 1   1.00000     0.00000

 46 48  0  0  0  0  0  0  0  0  1 V2000
   -7.2651  -29.3054  -35.0818 C   0  0  0  0  0  0  0  0  0  0  0  0
   -8.2059  -29.9892  -35.8461 C   0  0  0  0  0  0  0  0  0  0  0  0
   -7.5225  -28.0003  -34.6608 C   0  0  0  0  0  0  0  0  0  0  0  0
   -9.4076  -29.3707  -36.1923 C   0  0  0  0  0  0  0  0  0  0  0  0
   -9.0023  -26.0492  -34.5849 C   0  0  0  0  0  0  0  0  0  0  0  0
  -10.2040  -25.4307  -34.9311 C   0  0  0  0  0  0  0  0  0  0  0  0
  -10.8875  -27.4195  -36.1164 C   0  0  0  0  0  0  0  0  0  0  0  0
   -8.7266  -27.3622  -35.0000 C   0  0  0  0  0  0  0  0  0  0  0  0
   -9.6833  -28.0577  -35.7773 C   0  0  0  0  0  0  0  0  0  0  0  0
  -11.1447  -26.1146  -35.6954 C   0  0  0  0  0  0  0  0  0  0  0  0
  -13.3185  -25.9218  -36.9675 C   0  0  0  0  0  0  0  0  0  0  0  0
  -20.8574  -24.1715  -38.4327 C   0  0  0  0  0  0  0  0  0  0  0  0
  -20.2043  -25.3798  -37.7690 C   0  0  0  0  0  0  0  0  0  0  0  0
  -19.9655  -23.5776  -39.5186 C   0  0  0  0  0  0  0  0  0  0  0  0
  -18.8150  -25.0449  -37.2312 C   0  0  0  0  0  0  0  0  0  0  0  0
  -18.5756  -23.2398  -38.9838 C   0  0  0  0  0  0  0  0  0  0  0  0
  -17.9118  -24.4554  -38.3230 C   0  0  0  0  0  0  0  0  0  0  0  0
  -16.5471  -24.0793  -37.7491 C   0  0  0  0  0  0  0  0  0  0  0  0
  -15.5255  -25.1983  -37.8920 C   0  0  0  0  0  0  0  0  0  0  0  0
  -12.3624  -25.4860  -36.0459 N   0  0  0  0  0  0  0  0  0  0  0  0
  -14.3894  -25.0176  -37.0313 N   0  0  0  0  0  0  0  0  0  0  0  0
  -13.2685  -26.9447  -37.6464 O   0  0  0  0  0  0  0  0  0  0  0  0
   -6.3301  -29.7877  -34.8123 H   0  0  0  0  0  0  0  0  0  0  0  0
   -8.0047  -31.0050  -36.1738 H   0  0  0  0  0  0  0  0  0  0  0  0
   -6.7725  -27.4849  -34.0644 H   0  0  0  0  0  0  0  0  0  0  0  0
  -10.1283  -29.9240  -36.7909 H   0  0  0  0  0  0  0  0  0  0  0  0
   -8.2814  -25.4955  -33.9871 H   0  0  0  0  0  0  0  0  0  0  0  0
  -10.3939  -24.4135  -34.5976 H   0  0  0  0  0  0  0  0  0  0  0  0
  -11.6306  -27.9455  -36.7145 H   0  0  0  0  0  0  0  0  0  0  0  0
  -21.8204  -24.4644  -38.8659 H   0  0  0  0  0  0  0  0  0  0  0  0
  -21.0658  -23.4073  -37.6740 H   0  0  0  0  0  0  0  0  0  0  0  0
  -20.8398  -25.7385  -36.9513 H   0  0  0  0  0  0  0  0  0  0  0  0
  -20.1266  -26.1982  -38.4954 H   0  0  0  0  0  0  0  0  0  0  0  0
  -19.8739  -24.2910  -40.3469 H   0  0  0  0  0  0  0  0  0  0  0  0
  -20.4336  -22.6743  -39.9259 H   0  0  0  0  0  0  0  0  0  0  0  0
  -18.9121  -24.3322  -36.4020 H   0  0  0  0  0  0  0  0  0  0  0  0
  -18.3588  -25.9522  -36.8174 H   0  0  0  0  0  0  0  0  0  0  0  0
  -17.9506  -22.8732  -39.8069 H   0  0  0  0  0  0  0  0  0  0  0  0
  -18.6585  -22.4196  -38.2590 H   0  0  0  0  0  0  0  0  0  0  0  0
  -17.7542  -25.2231  -39.0924 H   0  0  0  0  0  0  0  0  0  0  0  0
  -16.6725  -23.8427  -36.6880 H   0  0  0  0  0  0  0  0  0  0  0  0
  -16.1901  -23.1726  -38.2480 H   0  0  0  0  0  0  0  0  0  0  0  0
  -15.9829  -26.1551  -37.6213 H   0  0  0  0  0  0  0  0  0  0  0  0
  -15.1583  -25.2750  -38.9203 H   0  0  0  0  0  0  0  0  0  0  0  0
  -12.5622  -24.6119  -35.5661 H   0  0  0  0  0  0  0  0  0  0  0  0
  -14.3599  -24.1906  -36.4369 H   0  0  0  0  0  0  0  0  0  0  0  0
  1  2  1  0  0  0  0
  1  3  2  0  0  0  0
  2  4  2  0  0  0  0
  3  8  1  0  0  0  0
  4  9  1  0  0  0  0
  5  6  1  0  0  0  0
  5  8  2  0  0  0  0
  6 10  2  0  0  0  0
  7  9  2  0  0  0  0
  7 10  1  0  0  0  0
  8  9  1  0  0  0  0
 10 20  1  0  0  0  0
 11 20  1  0  0  0  0
 11 21  1  0  0  0  0
 11 22  2  0  0  0  0
 12 13  1  0  0  0  0
 12 14  1  0  0  0  0
 13 15  1  0  0  0  0
 14 16  1  0  0  0  0
 15 17  1  0  0  0  0
 16 17  1  0  0  0  0
 17 18  1  0  0  0  0
 18 19  1  0  0  0  0
 19 21  1  0  0  0  0
  1 23  1  0  0  0  0
  2 24  1  0  0  0  0
  3 25  1  0  0  0  0
  4 26  1  0  0  0  0
  5 27  1  0  0  0  0
  6 28  1  0  0  0  0
  7 29  1  0  0  0  0
 12 30  1  0  0  0  0
 12 31  1  0  0  0  0
 13 32  1  0  0  0  0
 13 33  1  0  0  0  0
 14 34  1  0  0  0  0
 14 35  1  0  0  0  0
 15 36  1  0  0  0  0
 15 37  1  0  0  0  0
 16 38  1  0  0  0  0
 16 39  1  0  0  0  0
 17 40  1  0  0  0  0
 18 41  1  0  0  0  0
 18 42  1  0  0  0  0
 19 43  1  0  0  0  0
 19 44  1  0  0  0  0
 20 45  1  0  0  0  0
 21 46  1  0  0  0  0
M  END
> <Name>
IA_139.cdx

> <SourceTag>
IA_139

> <Gold.Version>
5.2

> <Gold.Id.Protein>
6HGV|6HGV_protein|mol2

> <Gold.Goldscore.Fitness>
63.0169

> <Gold.Goldscore.Internal.Vdw>
-6.7236

> <Gold.Goldscore.Internal.Torsion>
-3.3314

> <Gold.Goldscore.External.Vdw>
43.9587

> <Gold.Goldscore.Internal.HBond>
0.0000

> <Gold.Goldscore.External.HBond>
7.8691

> <Gold.Goldscore.Internal.Correction>
-4.7595

> <Gold.Goldscore.Hbonds>
donor molecule, donor type, donor heavy atom, donor atom, acceptor molecule, acceptor atom, score
      P1  H  1247  3847       L1    22  0.19
      L1  H    20    45       P1   853  0.25
      L1  H    21    46       P1   853  1.00

> <Gold.Goldscore.Internal.Vdw.Weighted>
-6.7236

> <Gold.Goldscore.Internal.Torsion.Weighted>
-3.3314

> <Gold.Goldscore.External.Vdw.Weighted>
60.4432

> <Gold.Goldscore.Internal.HBond.Weighted>
0.0000

> <Gold.Goldscore.External.HBond.Weighted>
7.8691

> <Gold.Goldscore.Internal.Correction.Weighted>
-4.7595

> <Gold.Protein.RotatedTorsions>
[ 3781 1176 1175 1172 ] final -174.08 input   60.00 | X-H torsion
[ 3847 1247 1246 1244 ] final  139.25 input   60.00 | X-H torsion
[ 4507 1931 1930 1928 ] final   89.85 input   60.00 | X-H torsion
[ 3677 1070 1069 1066 ] final -122.83 input   60.00 | X-H torsion
[ 3525  925  924  922 ] final  -17.13 input   59.99 | X-H torsion
[ 4531 1957 1955 1953 ] final  -13.20 input   60.00 | X-H torsion

> <Gold.Protein.ActiveResidues>
 PHE267  PRO268  MET310  ASP335  TRP336  MET339  TYR343  THR360  PRO361  ILE363 
 PRO371  SER374  ILE375  ASN378  PHE381  TYR383  GLN384  PHE387  LEU408  LEU417 
 MET419  LEU428  TYR466  MET469  ASN472  ASP496  VAL498  LEU499  MET503  HIS524 
 TRP525 

> <Gold.Protein.RotatedAtoms>
   -3.7200  -29.5150  -30.2272 H   0  0  0  0  0  0  0  0  0  0  0  0  # atno 3525 bound_to 925 
  -11.4285  -23.5483  -31.4503 H   0  0  0  0  0  0  0  0  0  0  0  0  # atno 3677 bound_to 1070
   -9.2536  -36.4770  -32.9447 H   0  0  0  0  0  0  0  0  0  0  0  0  # atno 3781 bound_to 1176
  -14.3322  -27.9951  -37.8721 H   0  0  0  0  0  0  0  0  0  0  0  0  # atno 3847 bound_to 1247
  -12.4622  -24.2593  -38.9946 H   0  0  0  0  0  0  0  0  0  0  0  0  # atno 4507 bound_to 1931
   -2.6970  -32.3594  -36.7170 H   0  0  0  0  0  0  0  0  0  0  0  0  # atno 4531 bound_to 1957
  -10.5490  -37.4306  -32.6982 LP  0  0  0  0  0  0  0  0  0  0  0  0  # atno 5205 bound_to 1176
  -10.3136  -36.7283  -34.1536 LP  0  0  0  0  0  0  0  0  0  0  0  0  # atno 5206 bound_to 1176
  -15.4467  -28.8870  -37.0908 LP  0  0  0  0  0  0  0  0  0  0  0  0  # atno 5215 bound_to 1247
  -15.7915  -27.3557  -37.5413 LP  0  0  0  0  0  0  0  0  0  0  0  0  # atno 5216 bound_to 1247
  -13.5383  -25.3786  -39.4815 LP  0  0  0  0  0  0  0  0  0  0  0  0  # atno 5217 bound_to 1931
  -13.1986  -24.0985  -40.4367 LP  0  0  0  0  0  0  0  0  0  0  0  0  # atno 5218 bound_to 1931
  -11.6176  -22.1842  -30.5834 LP  0  0  0  0  0  0  0  0  0  0  0  0  # atno 5224 bound_to 1070
  -12.8116  -23.2972  -30.6303 LP  0  0  0  0  0  0  0  0  0  0  0  0  # atno 5225 bound_to 1070

$$$$
IA_57.cdx|SeH_inactivess_minimized|sdf|142|dock8
  -GOLD-   4172121563D 1   1.00000     0.00000

 56 58  0  0  0  0  0  0  0  0  1 V2000
  -18.6101  -23.9446  -37.4958 C   0  0  0  0  0  0  0  0  0  0  0  0
  -18.5390  -23.4546  -38.8013 C   0  0  0  0  0  0  0  0  0  0  0  0
  -16.1424  -23.9138  -38.9072 C   0  0  0  0  0  0  0  0  0  0  0  0
  -16.2206  -24.3972  -37.6148 C   0  0  0  0  0  0  0  0  0  0  0  0
  -11.8573  -26.8764  -34.3872 C   0  0  0  0  0  0  0  0  0  0  0  0
  -13.0098  -26.9041  -35.2108 C   0  0  0  0  0  0  0  0  0  0  0  0
  -17.4389  -24.4080  -36.9294 C   0  0  0  0  0  0  0  0  0  0  0  0
  -17.3172  -23.4393  -39.5003 C   0  0  0  0  0  0  0  0  0  0  0  0
  -13.0429  -25.7189  -35.9119 C   0  0  0  0  0  0  0  0  0  0  0  0
  -11.2214  -25.6750  -34.6100 C   0  0  0  0  0  0  0  0  0  0  0  0
  -15.2408  -24.9594  -36.6914 C   0  0  0  0  0  0  0  0  0  0  0  0
  -15.9469  -25.3066  -35.4128 C   0  0  0  0  0  0  0  0  0  0  0  0
  -13.9351  -25.1561  -36.8837 C   0  0  0  0  0  0  0  0  0  0  0  0
  -11.3978  -27.8863  -33.4759 C   0  0  0  0  0  0  0  0  0  0  0  0
  -13.9948  -28.0025  -35.3012 C   0  0  0  0  0  0  0  0  0  0  0  0
   -9.9863  -25.1066  -34.0352 C   0  0  0  0  0  0  0  0  0  0  0  0
  -10.3568  -34.2122  -34.2768 C   0  0  0  0  0  0  0  0  0  0  0  0
  -11.3251  -33.2022  -30.4382 C   0  0  0  0  0  0  0  0  0  0  0  0
  -11.2790  -33.0543  -34.0995 C   0  0  0  0  0  0  0  0  0  0  0  0
  -11.9392  -33.2340  -31.7964 C   0  0  0  0  0  0  0  0  0  0  0  0
  -10.3792  -30.1817  -33.2413 C   0  0  0  0  0  0  0  0  0  0  0  0
  -11.5097  -31.0745  -32.7581 C   0  0  0  0  0  0  0  0  0  0  0  0
  -11.9511  -24.9795  -35.5385 N   0  0  0  0  0  0  0  0  0  0  0  0
  -17.2762  -24.9390  -35.6449 N   0  0  0  0  0  0  0  0  0  0  0  0
  -10.8614  -29.0670  -34.0248 N   0  0  0  0  0  0  0  0  0  0  0  0
  -11.1375  -32.4633  -32.7596 N   0  0  0  0  0  0  0  0  0  0  0  0
  -15.4504  -25.7962  -34.4152 O   0  0  0  0  0  0  0  0  0  0  0  0
  -11.4894  -27.7325  -32.2356 O   0  0  0  0  0  0  0  0  0  0  0  0
  -17.2800  -22.9614  -40.7519 F   0  0  0  0  0  0  0  0  0  0  0  0
  -19.5503  -23.9567  -36.9565 H   0  0  0  0  0  0  0  0  0  0  0  0
  -19.4366  -23.0800  -39.2861 H   0  0  0  0  0  0  0  0  0  0  0  0
  -15.2069  -23.8975  -39.4556 H   0  0  0  0  0  0  0  0  0  0  0  0
  -13.5122  -24.8417  -37.8381 H   0  0  0  0  0  0  0  0  0  0  0  0
  -14.8673  -27.7021  -35.9027 H   0  0  0  0  0  0  0  0  0  0  0  0
  -13.5627  -28.9061  -35.7621 H   0  0  0  0  0  0  0  0  0  0  0  0
  -14.3603  -28.3104  -34.3075 H   0  0  0  0  0  0  0  0  0  0  0  0
   -9.5689  -25.7676  -33.2581 H   0  0  0  0  0  0  0  0  0  0  0  0
   -9.2059  -24.9543  -34.8002 H   0  0  0  0  0  0  0  0  0  0  0  0
  -10.1602  -24.1181  -33.5766 H   0  0  0  0  0  0  0  0  0  0  0  0
  -10.7476  -35.1037  -33.7742 H   0  0  0  0  0  0  0  0  0  0  0  0
  -10.2075  -34.4330  -35.3394 H   0  0  0  0  0  0  0  0  0  0  0  0
   -9.3789  -33.9787  -33.8388 H   0  0  0  0  0  0  0  0  0  0  0  0
  -11.3057  -32.1811  -30.0420 H   0  0  0  0  0  0  0  0  0  0  0  0
  -11.8760  -33.8479  -29.7456 H   0  0  0  0  0  0  0  0  0  0  0  0
  -10.2913  -33.5644  -30.4895 H   0  0  0  0  0  0  0  0  0  0  0  0
  -12.3196  -33.3716  -34.2163 H   0  0  0  0  0  0  0  0  0  0  0  0
  -11.0647  -32.2717  -34.8332 H   0  0  0  0  0  0  0  0  0  0  0  0
  -12.9428  -32.7987  -31.7736 H   0  0  0  0  0  0  0  0  0  0  0  0
  -12.0088  -34.2609  -32.1669 H   0  0  0  0  0  0  0  0  0  0  0  0
   -9.6702  -30.7367  -33.8639 H   0  0  0  0  0  0  0  0  0  0  0  0
   -9.8388  -29.7634  -32.3864 H   0  0  0  0  0  0  0  0  0  0  0  0
  -11.7835  -30.8164  -31.7304 H   0  0  0  0  0  0  0  0  0  0  0  0
  -12.3976  -30.9711  -33.3901 H   0  0  0  0  0  0  0  0  0  0  0  0
  -11.7150  -24.0612  -35.8908 H   0  0  0  0  0  0  0  0  0  0  0  0
  -18.0343  -25.0379  -34.9802 H   0  0  0  0  0  0  0  0  0  0  0  0
  -10.8634  -29.1784  -35.0334 H   0  0  0  0  0  0  0  0  0  0  0  0
  1  2  2  0  0  0  0
  1  7  1  0  0  0  0
  2  8  1  0  0  0  0
  3  4  1  0  0  0  0
  3  8  2  0  0  0  0
  4  7  2  0  0  0  0
  4 11  1  0  0  0  0
  5  6  1  0  0  0  0
  5 10  2  0  0  0  0
  5 14  1  0  0  0  0
  6  9  2  0  0  0  0
  6 15  1  0  0  0  0
  7 24  1  0  0  0  0
  8 29  1  0  0  0  0
  9 13  1  0  0  0  0
  9 23  1  0  0  0  0
 10 16  1  0  0  0  0
 10 23  1  0  0  0  0
 11 12  1  0  0  0  0
 11 13  2  0  0  0  0
 12 24  1  0  0  0  0
 12 27  2  0  0  0  0
 14 25  1  0  0  0  0
 14 28  2  0  0  0  0
 17 19  1  0  0  0  0
 18 20  1  0  0  0  0
 19 26  1  0  0  0  0
 20 26  1  0  0  0  0
 21 22  1  0  0  0  0
 21 25  1  0  0  0  0
 22 26  1  0  0  0  0
  1 30  1  0  0  0  0
  2 31  1  0  0  0  0
  3 32  1  0  0  0  0
 13 33  1  0  0  0  0
 15 34  1  0  0  0  0
 15 35  1  0  0  0  0
 15 36  1  0  0  0  0
 16 37  1  0  0  0  0
 16 38  1  0  0  0  0
 16 39  1  0  0  0  0
 17 40  1  0  0  0  0
 17 41  1  0  0  0  0
 17 42  1  0  0  0  0
 18 43  1  0  0  0  0
 18 44  1  0  0  0  0
 18 45  1  0  0  0  0
 19 46  1  0  0  0  0
 19 47  1  0  0  0  0
 20 48  1  0  0  0  0
 20 49  1  0  0  0  0
 21 50  1  0  0  0  0
 21 51  1  0  0  0  0
 22 52  1  0  0  0  0
 22 53  1  0  0  0  0
 23 54  1  0  0  0  0
 24 55  1  0  0  0  0
 25 56  1  0  0  0  0
M  END
> <Name>
IA_57.cdx

> <SourceTag>
IA_57

> <Gold.Version>
5.2

> <Gold.Id.Protein>
6HGV|6HGV_protein|mol2

> <Gold.Goldscore.Fitness>
63.5446

> <Gold.Goldscore.Internal.Vdw>
-7.4474

> <Gold.Goldscore.Internal.Torsion>
-14.4324

> <Gold.Goldscore.External.Vdw>
47.6352

> <Gold.Goldscore.Internal.HBond>
0.0000

> <Gold.Goldscore.External.HBond>
0.6762

> <Gold.Goldscore.Internal.Correction>
-19.2497

> <Gold.Goldscore.Hbonds>
donor molecule, donor type, donor heavy atom, donor atom, acceptor molecule, acceptor atom, score
      L1  H    23    54       P1   854  0.04
      L1  H    24    55       P1  2185  0.08

> <Gold.Goldscore.Internal.Vdw.Weighted>
-7.4474

> <Gold.Goldscore.Internal.Torsion.Weighted>
-14.4324

> <Gold.Goldscore.External.Vdw.Weighted>
65.4984

> <Gold.Goldscore.Internal.HBond.Weighted>
0.0000

> <Gold.Goldscore.External.HBond.Weighted>
0.6762

> <Gold.Goldscore.Internal.Correction.Weighted>
-19.2497

> <Gold.Protein.RotatedTorsions>
[ 3781 1176 1175 1172 ] final  152.45 input   60.00 | X-H torsion
[ 3847 1247 1246 1244 ] final  154.70 input   60.00 | X-H torsion
[ 4507 1931 1930 1928 ] final  147.49 input   60.00 | X-H torsion
[ 3677 1070 1069 1066 ] final -103.55 input   60.00 | X-H torsion
[ 3525  925  924  922 ] final  160.46 input   59.99 | X-H torsion
[ 4531 1957 1955 1953 ] final   40.49 input   60.00 | X-H torsion

> <Gold.Protein.ActiveResidues>
 PHE267  PRO268  MET310  ASP335  TRP336  MET339  TYR343  THR360  PRO361  ILE363 
 PRO371  SER374  ILE375  ASN378  PHE381  TYR383  GLN384  PHE387  LEU408  LEU417 
 MET419  LEU428  TYR466  MET469  ASN472  ASP496  VAL498  LEU499  MET503  HIS524 
 TRP525 

> <Gold.Protein.RotatedAtoms>
   -2.0957  -30.2726  -29.6867 H   0  0  0  0  0  0  0  0  0  0  0  0  # atno 3525 bound_to 925 
  -11.6838  -23.7289  -31.4277 H   0  0  0  0  0  0  0  0  0  0  0  0  # atno 3677 bound_to 1070
   -9.4578  -36.7657  -32.5377 H   0  0  0  0  0  0  0  0  0  0  0  0  # atno 3781 bound_to 1176
  -14.4158  -27.7643  -37.9276 H   0  0  0  0  0  0  0  0  0  0  0  0  # atno 3847 bound_to 1247
  -12.5773  -23.7879  -39.7557 H   0  0  0  0  0  0  0  0  0  0  0  0  # atno 4507 bound_to 1931
   -3.0983  -33.1009  -36.6535 H   0  0  0  0  0  0  0  0  0  0  0  0  # atno 4531 bound_to 1957
  -10.8030  -37.4203  -33.1780 LP  0  0  0  0  0  0  0  0  0  0  0  0  # atno 5205 bound_to 1176
   -9.8540  -36.4479  -34.0837 LP  0  0  0  0  0  0  0  0  0  0  0  0  # atno 5206 bound_to 1176
  -15.2119  -28.9559  -37.1566 LP  0  0  0  0  0  0  0  0  0  0  0  0  # atno 5215 bound_to 1247
  -15.9422  -27.5192  -37.4196 LP  0  0  0  0  0  0  0  0  0  0  0  0  # atno 5216 bound_to 1247
  -12.9581  -25.0831  -38.8471 LP  0  0  0  0  0  0  0  0  0  0  0  0  # atno 5217 bound_to 1931
  -13.6628  -24.8688  -40.3046 LP  0  0  0  0  0  0  0  0  0  0  0  0  # atno 5218 bound_to 1931
  -11.3722  -22.2789  -30.7580 LP  0  0  0  0  0  0  0  0  0  0  0  0  # atno 5224 bound_to 1070
  -12.7999  -23.0207  -30.4786 LP  0  0  0  0  0  0  0  0  0  0  0  0  # atno 5225 bound_to 1070

$$$$
IA_45|SeH_inactivess_minimized|sdf|130|dock2
  -GOLD-   4172121433D 1   1.00000     0.00000

 66 68  0  0  0  0  0  0  0  0  1 V2000
  -14.6151  -25.4769  -36.9424 C   0  0  0  0  0  0  0  0  0  0  0  0
  -16.0830  -23.5728  -38.6804 C   0  0  0  0  0  0  0  0  0  0  0  0
   -7.9729  -29.0770  -34.4721 C   0  0  0  0  0  0  0  0  0  0  0  0
   -3.6756  -32.1748  -34.6220 C   0  0  0  0  0  0  0  0  0  0  0  0
   -5.7889  -33.3076  -33.8871 C   0  0  0  0  0  0  0  0  0  0  0  0
   -4.3252  -32.1677  -32.1997 C   0  0  0  0  0  0  0  0  0  0  0  0
   -5.9013  -31.1885  -35.2230 C   0  0  0  0  0  0  0  0  0  0  0  0
   -4.4360  -30.0476  -33.5339 C   0  0  0  0  0  0  0  0  0  0  0  0
   -6.5524  -31.1819  -32.7971 C   0  0  0  0  0  0  0  0  0  0  0  0
   -5.1258  -32.5011  -35.0167 C   0  0  0  0  0  0  0  0  0  0  0  0
   -3.6546  -31.3555  -33.3207 C   0  0  0  0  0  0  0  0  0  0  0  0
   -5.7790  -32.4942  -32.5815 C   0  0  0  0  0  0  0  0  0  0  0  0
   -5.8993  -30.3525  -33.9240 C   0  0  0  0  0  0  0  0  0  0  0  0
  -18.9854  -25.4644  -36.8673 C   0  0  0  0  0  0  0  0  0  0  0  0
  -18.9756  -23.4137  -38.3191 C   0  0  0  0  0  0  0  0  0  0  0  0
  -13.9497  -25.8420  -35.6261 C   0  0  0  0  0  0  0  0  0  0  0  0
  -12.4264  -25.9330  -35.7098 C   0  0  0  0  0  0  0  0  0  0  0  0
  -11.7008  -25.8760  -34.3595 C   0  0  0  0  0  0  0  0  0  0  0  0
  -10.1815  -26.0390  -34.4759 C   0  0  0  0  0  0  0  0  0  0  0  0
   -9.7795  -27.4315  -34.9537 C   0  0  0  0  0  0  0  0  0  0  0  0
  -16.7749  -24.6510  -37.8509 C   0  0  2  0  0  0  0  0  0  0  0  0
  -18.1692  -24.2515  -37.3220 C   0  0  0  0  0  0  0  0  0  0  0  0
  -15.9319  -25.0801  -36.7596 N   0  0  0  0  0  0  0  0  0  0  0  0
   -6.6271  -29.1181  -34.1220 N   0  0  0  0  0  0  0  0  0  0  0  0
   -8.4203  -27.7642  -34.5979 N   0  0  0  0  0  0  0  0  0  0  0  0
  -14.0315  -25.5079  -38.0225 O   0  0  0  0  0  0  0  0  0  0  0  0
  -15.7315  -23.7339  -39.8436 O   0  0  0  0  0  0  0  0  0  0  0  0
   -8.6783  -30.0696  -34.6480 O   0  0  0  0  0  0  0  0  0  0  0  0
  -15.8333  -22.4205  -38.0112 O   0  0  0  0  0  0  0  0  0  0  0  0
   -3.1062  -33.1030  -34.4898 H   0  0  0  0  0  0  0  0  0  0  0  0
   -3.1858  -31.6127  -35.4266 H   0  0  0  0  0  0  0  0  0  0  0  0
   -6.8201  -33.5606  -34.1627 H   0  0  0  0  0  0  0  0  0  0  0  0
   -5.2562  -34.2555  -33.7417 H   0  0  0  0  0  0  0  0  0  0  0  0
   -3.7672  -33.0956  -32.0240 H   0  0  0  0  0  0  0  0  0  0  0  0
   -4.3027  -31.6001  -31.2613 H   0  0  0  0  0  0  0  0  0  0  0  0
   -5.4510  -30.6163  -36.0448 H   0  0  0  0  0  0  0  0  0  0  0  0
   -6.9320  -31.4091  -35.5308 H   0  0  0  0  0  0  0  0  0  0  0  0
   -4.4055  -29.4420  -32.6185 H   0  0  0  0  0  0  0  0  0  0  0  0
   -3.9518  -29.4472  -34.3155 H   0  0  0  0  0  0  0  0  0  0  0  0
   -7.5988  -31.4025  -33.0455 H   0  0  0  0  0  0  0  0  0  0  0  0
   -6.5732  -30.6054  -31.8628 H   0  0  0  0  0  0  0  0  0  0  0  0
   -5.1349  -33.0857  -35.9434 H   0  0  0  0  0  0  0  0  0  0  0  0
   -2.6193  -31.1272  -33.0437 H   0  0  0  0  0  0  0  0  0  0  0  0
   -6.2506  -33.0744  -31.7805 H   0  0  0  0  0  0  0  0  0  0  0  0
  -18.3585  -26.1496  -36.2860 H   0  0  0  0  0  0  0  0  0  0  0  0
  -19.3718  -26.0201  -37.7280 H   0  0  0  0  0  0  0  0  0  0  0  0
  -19.8306  -25.1790  -36.2348 H   0  0  0  0  0  0  0  0  0  0  0  0
  -19.0671  -23.9133  -39.2889 H   0  0  0  0  0  0  0  0  0  0  0  0
  -19.9890  -23.2398  -37.9407 H   0  0  0  0  0  0  0  0  0  0  0  0
  -18.5134  -22.4351  -38.4815 H   0  0  0  0  0  0  0  0  0  0  0  0
  -14.2148  -25.0539  -34.9100 H   0  0  0  0  0  0  0  0  0  0  0  0
  -14.3754  -26.7753  -35.2435 H   0  0  0  0  0  0  0  0  0  0  0  0
  -12.1436  -26.8641  -36.2164 H   0  0  0  0  0  0  0  0  0  0  0  0
  -12.0616  -25.1136  -36.3415 H   0  0  0  0  0  0  0  0  0  0  0  0
  -12.0979  -26.6822  -33.7299 H   0  0  0  0  0  0  0  0  0  0  0  0
  -11.9376  -24.9370  -33.8474 H   0  0  0  0  0  0  0  0  0  0  0  0
   -9.7932  -25.3007  -35.1875 H   0  0  0  0  0  0  0  0  0  0  0  0
   -9.7073  -25.8407  -33.5081 H   0  0  0  0  0  0  0  0  0  0  0  0
  -10.4347  -28.2010  -34.5334 H   0  0  0  0  0  0  0  0  0  0  0  0
   -9.8471  -27.4863  -36.0449 H   0  0  0  0  0  0  0  0  0  0  0  0
  -16.8605  -25.5294  -38.5020 H   0  0  0  0  0  0  0  0  0  0  0  0
  -18.0177  -23.6284  -36.4291 H   0  0  0  0  0  0  0  0  0  0  0  0
  -16.3424  -25.1220  -35.8314 H   0  0  0  0  0  0  0  0  0  0  0  0
   -6.1327  -28.2409  -33.9998 H   0  0  0  0  0  0  0  0  0  0  0  0
   -7.7778  -27.0067  -34.3883 H   0  0  0  0  0  0  0  0  0  0  0  0
  -15.3598  -21.7353  -38.5275 H   0  0  0  0  0  0  0  0  0  0  0  0
  1 16  1  0  0  0  0
  1 23  1  0  0  0  0
  1 26  2  0  0  0  0
  2 21  1  0  0  0  0
  2 27  2  0  0  0  0
  2 29  1  0  0  0  0
  3 24  1  0  0  0  0
  3 25  1  0  0  0  0
  3 28  2  0  0  0  0
  4 10  1  0  0  0  0
  4 11  1  0  0  0  0
  5 10  1  0  0  0  0
  5 12  1  0  0  0  0
  6 11  1  0  0  0  0
  6 12  1  0  0  0  0
  7 10  1  0  0  0  0
  7 13  1  0  0  0  0
  8 11  1  0  0  0  0
  8 13  1  0  0  0  0
  9 12  1  0  0  0  0
  9 13  1  0  0  0  0
 13 24  1  0  0  0  0
 14 22  1  0  0  0  0
 15 22  1  0  0  0  0
 16 17  1  0  0  0  0
 17 18  1  0  0  0  0
 18 19  1  0  0  0  0
 19 20  1  0  0  0  0
 20 25  1  0  0  0  0
 21 22  1  0  0  0  0
 21 23  1  0  0  0  0
  4 30  1  0  0  0  0
  4 31  1  0  0  0  0
  5 32  1  0  0  0  0
  5 33  1  0  0  0  0
  6 34  1  0  0  0  0
  6 35  1  0  0  0  0
  7 36  1  0  0  0  0
  7 37  1  0  0  0  0
  8 38  1  0  0  0  0
  8 39  1  0  0  0  0
  9 40  1  0  0  0  0
  9 41  1  0  0  0  0
 10 42  1  0  0  0  0
 11 43  1  0  0  0  0
 12 44  1  0  0  0  0
 14 45  1  0  0  0  0
 14 46  1  0  0  0  0
 14 47  1  0  0  0  0
 15 48  1  0  0  0  0
 15 49  1  0  0  0  0
 15 50  1  0  0  0  0
 16 51  1  0  0  0  0
 16 52  1  0  0  0  0
 17 53  1  0  0  0  0
 17 54  1  0  0  0  0
 18 55  1  0  0  0  0
 18 56  1  0  0  0  0
 19 57  1  0  0  0  0
 19 58  1  0  0  0  0
 20 59  1  0  0  0  0
 20 60  1  0  0  0  0
 21 61  1  0  0  0  0
 22 62  1  0  0  0  0
 23 63  1  0  0  0  0
 24 64  1  0  0  0  0
 25 65  1  0  0  0  0
 29 66  1  0  0  0  0
M  END
> <Name>
IA_45

> <SourceTag>
IA_45

> <Gold.Version>
5.2

> <Gold.Id.Protein>
6HGV|6HGV_protein|mol2

> <Gold.Goldscore.Fitness>
78.7014

> <Gold.Goldscore.Internal.Vdw>
-4.4273

> <Gold.Goldscore.Internal.Torsion>
-5.3395

> <Gold.Goldscore.External.Vdw>
57.7643

> <Gold.Goldscore.Internal.HBond>
0.0000

> <Gold.Goldscore.External.HBond>
2.0000

> <Gold.Goldscore.Internal.Correction>
-7.0422

> <Gold.Goldscore.Hbonds>
donor molecule, donor type, donor heavy atom, donor atom, acceptor molecule, acceptor atom, score
      L1  H    29    66       P1   302  1.00

> <Gold.Goldscore.Internal.Vdw.Weighted>
-4.4273

> <Gold.Goldscore.Internal.Torsion.Weighted>
-5.3395

> <Gold.Goldscore.External.Vdw.Weighted>
79.4259

> <Gold.Goldscore.Internal.HBond.Weighted>
0.0000

> <Gold.Goldscore.External.HBond.Weighted>
2.0000

> <Gold.Goldscore.Internal.Correction.Weighted>
-7.0422

> <Gold.Protein.RotatedTorsions>
[ 3781 1176 1175 1172 ] final    5.61 input   60.00 | X-H torsion
[ 3847 1247 1246 1244 ] final  -19.53 input   60.00 | X-H torsion
[ 4507 1931 1930 1928 ] final  141.33 input   60.00 | X-H torsion
[ 3677 1070 1069 1066 ] final -110.83 input   60.00 | X-H torsion
[ 3525  925  924  922 ] final  -19.25 input   59.99 | X-H torsion
[ 4531 1957 1955 1953 ] final  -85.81 input   60.00 | X-H torsion

> <Gold.Protein.ActiveResidues>
 PHE267  PRO268  MET310  ASP335  TRP336  MET339  TYR343  THR360  PRO361  ILE363 
 PRO371  SER374  ILE375  ASN378  PHE381  TYR383  GLN384  PHE387  LEU408  LEU417 
 MET419  LEU428  TYR466  MET469  ASN472  ASP496  VAL498  LEU499  MET503  HIS524 
 TRP525 

> <Gold.Protein.RotatedAtoms>
   -3.7304  -29.5135  -30.1941 H   0  0  0  0  0  0  0  0  0  0  0  0  # atno 3525 bound_to 925 
  -11.5822  -23.6692  -31.4436 H   0  0  0  0  0  0  0  0  0  0  0  0  # atno 3677 bound_to 1070
  -10.8177  -37.2787  -33.5903 H   0  0  0  0  0  0  0  0  0  0  0  0  # atno 3781 bound_to 1176
  -15.9155  -28.4761  -37.0667 H   0  0  0  0  0  0  0  0  0  0  0  0  # atno 3847 bound_to 1247
  -12.5368  -23.8056  -39.6654 H   0  0  0  0  0  0  0  0  0  0  0  0  # atno 4507 bound_to 1931
   -1.6084  -32.3952  -36.9246 H   0  0  0  0  0  0  0  0  0  0  0  0  # atno 4531 bound_to 1957
   -9.5223  -36.3228  -33.8270 LP  0  0  0  0  0  0  0  0  0  0  0  0  # atno 5205 bound_to 1176
   -9.7652  -37.0288  -32.3747 LP  0  0  0  0  0  0  0  0  0  0  0  0  # atno 5206 bound_to 1176
  -15.2530  -27.1921  -37.8152 LP  0  0  0  0  0  0  0  0  0  0  0  0  # atno 5215 bound_to 1247
  -14.3908  -28.5662  -37.6280 LP  0  0  0  0  0  0  0  0  0  0  0  0  # atno 5216 bound_to 1247
  -13.0261  -25.1475  -38.8857 LP  0  0  0  0  0  0  0  0  0  0  0  0  # atno 5217 bound_to 1931
  -13.6357  -24.7865  -40.3570 LP  0  0  0  0  0  0  0  0  0  0  0  0  # atno 5218 bound_to 1931
  -11.4587  -22.2326  -30.6892 LP  0  0  0  0  0  0  0  0  0  0  0  0  # atno 5224 bound_to 1070
  -12.8158  -23.1270  -30.5313 LP  0  0  0  0  0  0  0  0  0  0  0  0  # atno 5225 bound_to 1070

$$$$
IA_39|SeH_inactivess_minimized|sdf|125|dock6
  -GOLD-   4172121283D 1   1.00000     0.00000

 66 70  0  0  0  0  0  0  0  0  1 V2000
  -10.2124  -25.4516  -34.7062 C   0  0  0  0  0  0  0  0  0  0  0  0
   -9.6308  -26.6709  -34.3589 C   0  0  0  0  0  0  0  0  0  0  0  0
  -11.4863  -25.4230  -35.2737 C   0  0  0  0  0  0  0  0  0  0  0  0
  -10.3233  -27.8617  -34.5793 C   0  0  0  0  0  0  0  0  0  0  0  0
  -12.1786  -26.6136  -35.4939 C   0  0  0  0  0  0  0  0  0  0  0  0
  -11.5972  -27.8329  -35.1466 C   0  0  0  0  0  0  0  0  0  0  0  0
  -14.0356  -25.5404  -36.8289 C   0  0  0  0  0  0  0  0  0  0  0  0
  -17.8225  -24.5320  -40.4204 C   0  0  0  0  0  0  0  0  0  0  0  0
  -16.6163  -22.5216  -39.5301 C   0  0  0  0  0  0  0  0  0  0  0  0
  -18.6361  -23.4035  -38.3336 C   0  0  0  0  0  0  0  0  0  0  0  0
  -15.5473  -24.7859  -39.3974 C   0  0  0  0  0  0  0  0  0  0  0  0
  -17.5693  -25.6688  -38.1998 C   0  0  0  0  0  0  0  0  0  0  0  0
  -16.3618  -23.6552  -37.3076 C   0  0  0  0  0  0  0  0  0  0  0  0
   -6.7763  -32.6382  -35.1263 C   0  0  0  0  0  0  0  0  0  0  0  0
   -7.8734  -34.7389  -34.7453 C   0  0  0  0  0  0  0  0  0  0  0  0
   -7.9645  -31.8972  -34.5084 C   0  0  0  0  0  0  0  0  0  0  0  0
   -9.0685  -34.0104  -34.1253 C   0  0  0  0  0  0  0  0  0  0  0  0
  -16.4446  -23.8709  -40.2485 C   0  0  0  0  0  0  0  0  0  0  0  0
  -18.4748  -24.7573  -39.0460 C   0  0  0  0  0  0  0  0  0  0  0  0
  -17.2624  -22.7361  -38.1508 C   0  0  0  0  0  0  0  0  0  0  0  0
  -16.1808  -25.0194  -38.0078 C   0  0  0  0  0  0  0  0  0  0  0  0
  -10.9820  -31.0260  -35.1120 C   0  0  0  0  0  0  0  0  0  0  0  0
  -10.3397  -31.9606  -34.0920 C   0  0  0  0  0  0  0  0  0  0  0  0
  -11.9733  -30.0765  -34.4529 C   0  0  0  0  0  0  0  0  0  0  0  0
   -6.6297  -33.9854  -34.5705 N   0  0  0  0  0  0  0  0  0  0  0  0
   -9.2053  -32.6616  -34.6900 N   0  0  0  0  0  0  0  0  0  0  0  0
  -13.4704  -26.5679  -36.0681 N   0  0  0  0  0  0  0  0  0  0  0  0
  -15.3360  -25.8820  -37.2111 N   0  0  0  0  0  0  0  0  0  0  0  0
  -13.4999  -24.4786  -37.1373 O   0  0  0  0  0  0  0  0  0  0  0  0
  -12.2567  -29.0079  -35.3533 O   0  0  0  0  0  0  0  0  0  0  0  0
   -9.6728  -24.5247  -34.5354 H   0  0  0  0  0  0  0  0  0  0  0  0
   -8.6386  -26.6936  -33.9178 H   0  0  0  0  0  0  0  0  0  0  0  0
  -11.9290  -24.4666  -35.5401 H   0  0  0  0  0  0  0  0  0  0  0  0
   -9.8641  -28.8080  -34.3070 H   0  0  0  0  0  0  0  0  0  0  0  0
  -18.4668  -23.8977  -41.0415 H   0  0  0  0  0  0  0  0  0  0  0  0
  -17.7161  -25.4890  -40.9459 H   0  0  0  0  0  0  0  0  0  0  0  0
  -15.6417  -22.0317  -39.4148 H   0  0  0  0  0  0  0  0  0  0  0  0
  -17.2398  -21.8522  -40.1356 H   0  0  0  0  0  0  0  0  0  0  0  0
  -19.2951  -22.7492  -38.9175 H   0  0  0  0  0  0  0  0  0  0  0  0
  -19.1151  -23.5488  -37.3576 H   0  0  0  0  0  0  0  0  0  0  0  0
  -15.3976  -25.7435  -39.9132 H   0  0  0  0  0  0  0  0  0  0  0  0
  -14.5515  -24.3358  -39.2897 H   0  0  0  0  0  0  0  0  0  0  0  0
  -18.0379  -25.8579  -37.2250 H   0  0  0  0  0  0  0  0  0  0  0  0
  -17.4668  -26.6477  -38.6864 H   0  0  0  0  0  0  0  0  0  0  0  0
  -15.3862  -23.1774  -37.1490 H   0  0  0  0  0  0  0  0  0  0  0  0
  -16.8018  -23.7938  -36.3112 H   0  0  0  0  0  0  0  0  0  0  0  0
   -6.8875  -32.6931  -36.2168 H   0  0  0  0  0  0  0  0  0  0  0  0
   -5.8586  -32.0739  -34.9272 H   0  0  0  0  0  0  0  0  0  0  0  0
   -7.7624  -35.7188  -34.2681 H   0  0  0  0  0  0  0  0  0  0  0  0
   -8.0530  -34.9213  -35.8125 H   0  0  0  0  0  0  0  0  0  0  0  0
   -7.7714  -31.7143  -33.4430 H   0  0  0  0  0  0  0  0  0  0  0  0
   -8.0557  -30.9206  -34.9979 H   0  0  0  0  0  0  0  0  0  0  0  0
   -9.9738  -34.5931  -34.3320 H   0  0  0  0  0  0  0  0  0  0  0  0
   -8.9475  -33.9664  -33.0348 H   0  0  0  0  0  0  0  0  0  0  0  0
  -15.9851  -23.7116  -41.2303 H   0  0  0  0  0  0  0  0  0  0  0  0
  -19.4563  -25.2270  -39.1746 H   0  0  0  0  0  0  0  0  0  0  0  0
  -17.3840  -21.7718  -37.6450 H   0  0  0  0  0  0  0  0  0  0  0  0
  -10.2135  -30.4408  -35.6335 H   0  0  0  0  0  0  0  0  0  0  0  0
  -11.4984  -31.6023  -35.8907 H   0  0  0  0  0  0  0  0  0  0  0  0
  -11.0720  -32.6931  -33.7350 H   0  0  0  0  0  0  0  0  0  0  0  0
   -9.9895  -31.3892  -33.2257 H   0  0  0  0  0  0  0  0  0  0  0  0
  -11.5574  -29.6549  -33.5322 H   0  0  0  0  0  0  0  0  0  0  0  0
  -12.9102  -30.5915  -34.2179 H   0  0  0  0  0  0  0  0  0  0  0  0
   -5.8684  -34.4693  -35.0454 H   0  0  0  0  0  0  0  0  0  0  0  0
  -14.0595  -27.3813  -35.9082 H   0  0  0  0  0  0  0  0  0  0  0  0
  -15.7056  -26.7791  -36.9151 H   0  0  0  0  0  0  0  0  0  0  0  0
  1  2  1  0  0  0  0
  1  3  2  0  0  0  0
  2  4  2  0  0  0  0
  3  5  1  0  0  0  0
  4  6  1  0  0  0  0
  5  6  2  0  0  0  0
  5 27  1  0  0  0  0
  6 30  1  0  0  0  0
  7 27  1  0  0  0  0
  7 28  1  0  0  0  0
  7 29  2  0  0  0  0
  8 18  1  0  0  0  0
  8 19  1  0  0  0  0
  9 18  1  0  0  0  0
  9 20  1  0  0  0  0
 10 19  1  0  0  0  0
 10 20  1  0  0  0  0
 11 18  1  0  0  0  0
 11 21  1  0  0  0  0
 12 19  1  0  0  0  0
 12 21  1  0  0  0  0
 13 20  1  0  0  0  0
 13 21  1  0  0  0  0
 14 16  1  0  0  0  0
 14 25  1  0  0  0  0
 15 17  1  0  0  0  0
 15 25  1  0  0  0  0
 16 26  1  0  0  0  0
 17 26  1  0  0  0  0
 21 28  1  0  0  0  0
 22 23  1  0  0  0  0
 22 24  1  0  0  0  0
 23 26  1  0  0  0  0
 24 30  1  0  0  0  0
  1 31  1  0  0  0  0
  2 32  1  0  0  0  0
  3 33  1  0  0  0  0
  4 34  1  0  0  0  0
  8 35  1  0  0  0  0
  8 36  1  0  0  0  0
  9 37  1  0  0  0  0
  9 38  1  0  0  0  0
 10 39  1  0  0  0  0
 10 40  1  0  0  0  0
 11 41  1  0  0  0  0
 11 42  1  0  0  0  0
 12 43  1  0  0  0  0
 12 44  1  0  0  0  0
 13 45  1  0  0  0  0
 13 46  1  0  0  0  0
 14 47  1  0  0  0  0
 14 48  1  0  0  0  0
 15 49  1  0  0  0  0
 15 50  1  0  0  0  0
 16 51  1  0  0  0  0
 16 52  1  0  0  0  0
 17 53  1  0  0  0  0
 17 54  1  0  0  0  0
 18 55  1  0  0  0  0
 19 56  1  0  0  0  0
 20 57  1  0  0  0  0
 22 58  1  0  0  0  0
 22 59  1  0  0  0  0
 23 60  1  0  0  0  0
 23 61  1  0  0  0  0
 24 62  1  0  0  0  0
 24 63  1  0  0  0  0
 25 64  1  0  0  0  0
 27 65  1  0  0  0  0
 28 66  1  0  0  0  0
M  END
> <Name>
IA_39

> <SourceTag>
IA_39

> <Gold.Version>
5.2

> <Gold.Id.Protein>
6HGV|6HGV_protein|mol2

> <Gold.Goldscore.Fitness>
52.4265

> <Gold.Goldscore.Internal.Vdw>
-15.0085

> <Gold.Goldscore.Internal.Torsion>
-6.0522

> <Gold.Goldscore.External.Vdw>
43.6577

> <Gold.Goldscore.Internal.HBond>
0.0000

> <Gold.Goldscore.External.HBond>
0.2358

> <Gold.Goldscore.Internal.Correction>
-13.2221

> <Gold.Goldscore.Hbonds>
donor molecule, donor type, donor heavy atom, donor atom, acceptor molecule, acceptor atom, score
      P1  H  1256  3854       L1    30  0.08
      P1  H  1931  4507       L1    29  0.02
      L1  H    28    66       P1  1247  0.01

> <Gold.Goldscore.Internal.Vdw.Weighted>
-15.0085

> <Gold.Goldscore.Internal.Torsion.Weighted>
-6.0522

> <Gold.Goldscore.External.Vdw.Weighted>
60.0293

> <Gold.Goldscore.Internal.HBond.Weighted>
0.0000

> <Gold.Goldscore.External.HBond.Weighted>
0.2358

> <Gold.Goldscore.Internal.Correction.Weighted>
-13.2221

> <Gold.Protein.RotatedTorsions>
[ 3781 1176 1175 1172 ] final  139.84 input   60.00 | X-H torsion
[ 3847 1247 1246 1244 ] final   43.67 input   60.00 | X-H torsion
[ 4507 1931 1930 1928 ] final   73.57 input   60.00 | X-H torsion
[ 3677 1070 1069 1066 ] final -116.81 input   60.00 | X-H torsion
[ 3525  925  924  922 ] final   75.91 input   59.99 | X-H torsion
[ 4531 1957 1955 1953 ] final   42.50 input   60.00 | X-H torsion

> <Gold.Protein.ActiveResidues>
 PHE267  PRO268  MET310  ASP335  TRP336  MET339  TYR343  THR360  PRO361  ILE363 
 PRO371  SER374  ILE375  ASN378  PHE381  TYR383  GLN384  PHE387  LEU408  LEU417 
 MET419  LEU428  TYR466  MET469  ASN472  ASP496  VAL498  LEU499  MET503  HIS524 
 TRP525 

> <Gold.Protein.RotatedAtoms>
   -2.5757  -29.9607  -30.8086 H   0  0  0  0  0  0  0  0  0  0  0  0  # atno 3525 bound_to 925 
  -11.5031  -23.6122  -31.4500 H   0  0  0  0  0  0  0  0  0  0  0  0  # atno 3677 bound_to 1070
   -9.5906  -36.8902  -32.4419 H   0  0  0  0  0  0  0  0  0  0  0  0  # atno 3781 bound_to 1176
  -15.0752  -28.9615  -37.2108 H   0  0  0  0  0  0  0  0  0  0  0  0  # atno 3847 bound_to 1247
  -12.5409  -24.4779  -38.8668 H   0  0  0  0  0  0  0  0  0  0  0  0  # atno 4507 bound_to 1931
   -3.0989  -33.1338  -36.6540 H   0  0  0  0  0  0  0  0  0  0  0  0  # atno 4531 bound_to 1957
  -10.8348  -37.3675  -33.3758 LP  0  0  0  0  0  0  0  0  0  0  0  0  # atno 5205 bound_to 1176
   -9.6884  -36.3754  -33.9825 LP  0  0  0  0  0  0  0  0  0  0  0  0  # atno 5206 bound_to 1176
  -16.0052  -27.6336  -37.3511 LP  0  0  0  0  0  0  0  0  0  0  0  0  # atno 5215 bound_to 1247
  -14.4848  -27.6358  -37.9470 LP  0  0  0  0  0  0  0  0  0  0  0  0  # atno 5216 bound_to 1247
  -13.6389  -25.3210  -39.7220 LP  0  0  0  0  0  0  0  0  0  0  0  0  # atno 5217 bound_to 1931
  -13.0187  -23.9360  -40.3249 LP  0  0  0  0  0  0  0  0  0  0  0  0  # atno 5218 bound_to 1931
  -11.5356  -22.2041  -30.6351 LP  0  0  0  0  0  0  0  0  0  0  0  0  # atno 5224 bound_to 1070
  -12.8184  -23.2130  -30.5790 LP  0  0  0  0  0  0  0  0  0  0  0  0  # atno 5225 bound_to 1070

$$$$
IA_189.cdx|SeH_inactivess_minimized|sdf|89|dock9
  -GOLD-   4172120253D 1   1.00000     0.00000

 26 26  0  0  0  0  0  0  0  0  1 V2000
   -9.0967  -27.0558  -34.9643 C   0  0  0  0  0  0  0  0  0  0  0  0
   -9.4920  -25.8372  -34.4125 C   0  0  0  0  0  0  0  0  0  0  0  0
   -9.7587  -27.5625  -36.0826 C   0  0  0  0  0  0  0  0  0  0  0  0
  -10.5492  -25.1253  -34.9791 C   0  0  0  0  0  0  0  0  0  0  0  0
  -10.8159  -26.8506  -36.6493 C   0  0  0  0  0  0  0  0  0  0  0  0
  -11.2112  -25.6319  -36.0975 C   0  0  0  0  0  0  0  0  0  0  0  0
  -13.3801  -25.4096  -37.3454 C   0  0  0  0  0  0  0  0  0  0  0  0
  -16.2699  -25.2394  -36.9433 C   0  0  0  0  0  0  0  0  0  0  0  0
  -16.1722  -23.4630  -38.7284 C   0  0  0  0  0  0  0  0  0  0  0  0
  -15.5036  -24.6960  -38.1396 C   0  0  0  0  0  0  0  0  0  0  0  0
  -12.2687  -24.9196  -36.6641 N   0  0  0  0  0  0  0  0  0  0  0  0
  -13.6453  -26.5820  -37.5819 O   0  0  0  0  0  0  0  0  0  0  0  0
  -14.1713  -24.3615  -37.7338 O   0  0  0  0  0  0  0  0  0  0  0  0
   -8.2730  -27.6101  -34.5238 H   0  0  0  0  0  0  0  0  0  0  0  0
   -8.9762  -25.4420  -33.5423 H   0  0  0  0  0  0  0  0  0  0  0  0
   -9.4500  -28.5109  -36.5127 H   0  0  0  0  0  0  0  0  0  0  0  0
  -10.8483  -24.1766  -34.5406 H   0  0  0  0  0  0  0  0  0  0  0  0
  -11.3244  -27.2552  -37.5209 H   0  0  0  0  0  0  0  0  0  0  0  0
  -15.8374  -26.1800  -36.5886 H   0  0  0  0  0  0  0  0  0  0  0  0
  -16.2561  -24.5158  -36.1212 H   0  0  0  0  0  0  0  0  0  0  0  0
  -17.3227  -25.4104  -37.1937 H   0  0  0  0  0  0  0  0  0  0  0  0
  -17.1599  -23.7022  -39.1339 H   0  0  0  0  0  0  0  0  0  0  0  0
  -15.5568  -23.0423  -39.5308 H   0  0  0  0  0  0  0  0  0  0  0  0
  -16.2845  -22.6772  -37.9733 H   0  0  0  0  0  0  0  0  0  0  0  0
  -15.4273  -25.4724  -38.9079 H   0  0  0  0  0  0  0  0  0  0  0  0
  -12.2212  -23.9001  -36.5658 H   0  0  0  0  0  0  0  0  0  0  0  0
  1  2  1  0  0  0  0
  1  3  2  0  0  0  0
  2  4  2  0  0  0  0
  3  5  1  0  0  0  0
  4  6  1  0  0  0  0
  5  6  2  0  0  0  0
  6 11  1  0  0  0  0
  7 11  1  0  0  0  0
  7 12  2  0  0  0  0
  7 13  1  0  0  0  0
  8 10  1  0  0  0  0
  9 10  1  0  0  0  0
 10 13  1  0  0  0  0
  1 14  1  0  0  0  0
  2 15  1  0  0  0  0
  3 16  1  0  0  0  0
  4 17  1  0  0  0  0
  5 18  1  0  0  0  0
  8 19  1  0  0  0  0
  8 20  1  0  0  0  0
  8 21  1  0  0  0  0
  9 22  1  0  0  0  0
  9 23  1  0  0  0  0
  9 24  1  0  0  0  0
 10 25  1  0  0  0  0
 11 26  1  0  0  0  0
M  END
> <Name>
IA_189.cdx

> <SourceTag>
IA_189

> <Gold.Version>
5.2

> <Gold.Id.Protein>
6HGV|6HGV_protein|mol2

> <Gold.Goldscore.Fitness>
48.6429

> <Gold.Goldscore.Internal.Vdw>
-1.6277

> <Gold.Goldscore.Internal.Torsion>
-2.6229

> <Gold.Goldscore.External.Vdw>
32.6788

> <Gold.Goldscore.Internal.HBond>
0.0000

> <Gold.Goldscore.External.HBond>
4.1093

> <Gold.Goldscore.Internal.Correction>
-3.8508

> <Gold.Goldscore.Hbonds>
donor molecule, donor type, donor heavy atom, donor atom, acceptor molecule, acceptor atom, score
      P1  H  1247  3847       L1    12  0.36
      L1  H    11    26       P1   854  0.57

> <Gold.Goldscore.Internal.Vdw.Weighted>
-1.6277

> <Gold.Goldscore.Internal.Torsion.Weighted>
-2.6229

> <Gold.Goldscore.External.Vdw.Weighted>
44.9334

> <Gold.Goldscore.Internal.HBond.Weighted>
0.0000

> <Gold.Goldscore.External.HBond.Weighted>
4.1093

> <Gold.Goldscore.Internal.Correction.Weighted>
-3.8508

> <Gold.Protein.RotatedTorsions>
[ 3781 1176 1175 1172 ] final   16.01 input   60.00 | X-H torsion
[ 3847 1247 1246 1244 ] final  170.69 input   60.00 | X-H torsion
[ 4507 1931 1930 1928 ] final  152.24 input   60.00 | X-H torsion
[ 3677 1070 1069 1066 ] final -136.74 input   60.00 | X-H torsion
[ 3525  925  924  922 ] final   94.83 input   59.99 | X-H torsion
[ 4531 1957 1955 1953 ] final   33.13 input   60.00 | X-H torsion

> <Gold.Protein.ActiveResidues>
 PHE267  PRO268  MET310  ASP335  TRP336  MET339  TYR343  THR360  PRO361  ILE363 
 PRO371  SER374  ILE375  ASN378  PHE381  TYR383  GLN384  PHE387  LEU408  LEU417 
 MET419  LEU428  TYR466  MET469  ASN472  ASP496  VAL498  LEU499  MET503  HIS524 
 TRP525 

> <Gold.Protein.RotatedAtoms>
   -2.3380  -30.0786  -30.6527 H   0  0  0  0  0  0  0  0  0  0  0  0  # atno 3525 bound_to 925 
  -11.2793  -23.3792  -31.4274 H   0  0  0  0  0  0  0  0  0  0  0  0  # atno 3677 bound_to 1070
  -10.8300  -37.3453  -33.4346 H   0  0  0  0  0  0  0  0  0  0  0  0  # atno 3781 bound_to 1176
  -14.5611  -27.5496  -37.9527 H   0  0  0  0  0  0  0  0  0  0  0  0  # atno 3847 bound_to 1247
  -12.6124  -23.7804  -39.8244 H   0  0  0  0  0  0  0  0  0  0  0  0  # atno 4507 bound_to 1931
   -3.0866  -32.9814  -36.6537 H   0  0  0  0  0  0  0  0  0  0  0  0  # atno 4531 bound_to 1957
   -9.6412  -36.3580  -33.9447 LP  0  0  0  0  0  0  0  0  0  0  0  0  # atno 5205 bound_to 1176
   -9.6339  -36.9265  -32.4139 LP  0  0  0  0  0  0  0  0  0  0  0  0  # atno 5206 bound_to 1176
  -14.9671  -28.9604  -37.2509 LP  0  0  0  0  0  0  0  0  0  0  0  0  # atno 5215 bound_to 1247
  -16.0406  -27.7309  -37.3000 LP  0  0  0  0  0  0  0  0  0  0  0  0  # atno 5216 bound_to 1247
  -12.9066  -25.0294  -38.8236 LP  0  0  0  0  0  0  0  0  0  0  0  0  # atno 5217 bound_to 1931
  -13.6790  -24.9300  -40.2589 LP  0  0  0  0  0  0  0  0  0  0  0  0  # atno 5218 bound_to 1931
  -11.8198  -22.1732  -30.4778 LP  0  0  0  0  0  0  0  0  0  0  0  0  # atno 5224 bound_to 1070
  -12.7597  -23.4786  -30.7591 LP  0  0  0  0  0  0  0  0  0  0  0  0  # atno 5225 bound_to 1070

$$$$
IA_48.cdx|SeH_inactivess_minimized|sdf|133|dock1
  -GOLD-   4172121493D 1   1.00000     0.00000

 28 29  0  0  0  0  0  0  0  0  1 V2000
  -17.3379  -23.3845  -39.4651 C   0  0  0  0  0  0  0  0  0  0  0  0
   -9.4037  -26.3165  -34.9209 C   0  0  0  0  0  0  0  0  0  0  0  0
  -16.1726  -22.9028  -38.8689 C   0  0  0  0  0  0  0  0  0  0  0  0
  -17.9280  -24.5580  -38.9955 C   0  0  0  0  0  0  0  0  0  0  0  0
  -10.0723  -25.4093  -34.0990 C   0  0  0  0  0  0  0  0  0  0  0  0
  -10.1266  -27.1382  -35.7856 C   0  0  0  0  0  0  0  0  0  0  0  0
  -15.5972  -23.5946  -37.8031 C   0  0  0  0  0  0  0  0  0  0  0  0
  -17.3526  -25.2498  -37.9298 C   0  0  0  0  0  0  0  0  0  0  0  0
  -11.4639  -25.3238  -34.1418 C   0  0  0  0  0  0  0  0  0  0  0  0
  -11.5182  -27.0527  -35.8284 C   0  0  0  0  0  0  0  0  0  0  0  0
  -16.1871  -24.7682  -37.3335 C   0  0  0  0  0  0  0  0  0  0  0  0
  -12.1869  -26.1456  -35.0065 C   0  0  0  0  0  0  0  0  0  0  0  0
  -14.0580  -25.5745  -36.2644 C   0  0  0  0  0  0  0  0  0  0  0  0
  -15.5723  -25.5085  -36.1941 C   0  0  0  0  0  0  0  0  0  0  0  0
  -13.3840  -25.2501  -37.2331 O   0  0  0  0  0  0  0  0  0  0  0  0
  -13.5805  -26.0616  -35.0485 O   0  0  0  0  0  0  0  0  0  0  0  0
  -17.7866  -22.8449  -40.2941 H   0  0  0  0  0  0  0  0  0  0  0  0
   -8.3201  -26.3828  -34.8883 H   0  0  0  0  0  0  0  0  0  0  0  0
  -15.7137  -21.9885  -39.2336 H   0  0  0  0  0  0  0  0  0  0  0  0
  -18.8359  -24.9327  -39.4588 H   0  0  0  0  0  0  0  0  0  0  0  0
   -9.5095  -24.7694  -33.4254 H   0  0  0  0  0  0  0  0  0  0  0  0
   -9.6052  -27.8443  -36.4254 H   0  0  0  0  0  0  0  0  0  0  0  0
  -14.6890  -23.2120  -37.3448 H   0  0  0  0  0  0  0  0  0  0  0  0
  -17.8192  -26.1634  -37.5706 H   0  0  0  0  0  0  0  0  0  0  0  0
  -11.9788  -24.6160  -33.4980 H   0  0  0  0  0  0  0  0  0  0  0  0
  -12.0762  -27.6967  -36.5028 H   0  0  0  0  0  0  0  0  0  0  0  0
  -15.8473  -25.0332  -35.2392 H   0  0  0  0  0  0  0  0  0  0  0  0
  -15.9551  -26.5408  -36.1617 H   0  0  0  0  0  0  0  0  0  0  0  0
  1  3  1  0  0  0  0
  1  4  2  0  0  0  0
  2  5  2  0  0  0  0
  2  6  1  0  0  0  0
  3  7  2  0  0  0  0
  4  8  1  0  0  0  0
  5  9  1  0  0  0  0
  6 10  2  0  0  0  0
  7 11  1  0  0  0  0
  8 11  2  0  0  0  0
  9 12  2  0  0  0  0
 10 12  1  0  0  0  0
 11 14  1  0  0  0  0
 12 16  1  0  0  0  0
 13 14  1  0  0  0  0
 13 15  2  0  0  0  0
 13 16  1  0  0  0  0
  1 17  1  0  0  0  0
  2 18  1  0  0  0  0
  3 19  1  0  0  0  0
  4 20  1  0  0  0  0
  5 21  1  0  0  0  0
  6 22  1  0  0  0  0
  7 23  1  0  0  0  0
  8 24  1  0  0  0  0
  9 25  1  0  0  0  0
 10 26  1  0  0  0  0
 14 27  1  0  0  0  0
 14 28  1  0  0  0  0
M  END
> <Name>
IA_48.cdx

> <SourceTag>
IA_48

> <Gold.Version>
5.2

> <Gold.Id.Protein>
6HGV|6HGV_protein|mol2

> <Gold.Goldscore.Fitness>
50.5145

> <Gold.Goldscore.Internal.Vdw>
-0.1898

> <Gold.Goldscore.Internal.Torsion>
-3.0503

> <Gold.Goldscore.External.Vdw>
36.1682

> <Gold.Goldscore.Internal.HBond>
0.0000

> <Gold.Goldscore.External.HBond>
2.0000

> <Gold.Goldscore.Internal.Correction>
-2.0233

> <Gold.Goldscore.Hbonds>
donor molecule, donor type, donor heavy atom, donor atom, acceptor molecule, acceptor atom, score
      P1  H  1931  4507       L1    15  1.00

> <Gold.Goldscore.Internal.Vdw.Weighted>
-0.1898

> <Gold.Goldscore.Internal.Torsion.Weighted>
-3.0503

> <Gold.Goldscore.External.Vdw.Weighted>
49.7313

> <Gold.Goldscore.Internal.HBond.Weighted>
0.0000

> <Gold.Goldscore.External.HBond.Weighted>
2.0000

> <Gold.Goldscore.Internal.Correction.Weighted>
-2.0233

> <Gold.Protein.RotatedTorsions>
[ 3781 1176 1175 1172 ] final  117.35 input   60.00 | X-H torsion
[ 3847 1247 1246 1244 ] final  141.74 input   60.00 | X-H torsion
[ 4507 1931 1930 1928 ] final   29.35 input   60.00 | X-H torsion
[ 3677 1070 1069 1066 ] final -102.59 input   60.00 | X-H torsion
[ 3525  925  924  922 ] final  -72.41 input   59.99 | X-H torsion
[ 4531 1957 1955 1953 ] final  112.12 input   60.00 | X-H torsion

> <Gold.Protein.ActiveResidues>
 PHE267  PRO268  MET310  ASP335  TRP336  MET339  TYR343  THR360  PRO361  ILE363 
 PRO371  SER374  ILE375  ASN378  PHE381  TYR383  GLN384  PHE387  LEU408  LEU417 
 MET419  LEU428  TYR466  MET469  ASN472  ASP496  VAL498  LEU499  MET503  HIS524 
 TRP525 

> <Gold.Protein.RotatedAtoms>
   -3.6160  -29.6385  -29.3737 H   0  0  0  0  0  0  0  0  0  0  0  0  # atno 3525 bound_to 925 
  -11.6976  -23.7360  -31.4249 H   0  0  0  0  0  0  0  0  0  0  0  0  # atno 3677 bound_to 1070
   -9.8758  -37.1068  -32.3715 H   0  0  0  0  0  0  0  0  0  0  0  0  # atno 3781 bound_to 1176
  -14.3416  -27.9570  -37.8830 H   0  0  0  0  0  0  0  0  0  0  0  0  # atno 3847 bound_to 1247
  -12.9370  -25.0603  -38.8439 H   0  0  0  0  0  0  0  0  0  0  0  0  # atno 4507 bound_to 1931
   -2.4999  -34.0098  -36.7830 H   0  0  0  0  0  0  0  0  0  0  0  0  # atno 4531 bound_to 1957
  -10.7962  -37.2169  -33.7089 LP  0  0  0  0  0  0  0  0  0  0  0  0  # atno 5205 bound_to 1176
   -9.4398  -36.3077  -33.7203 LP  0  0  0  0  0  0  0  0  0  0  0  0  # atno 5206 bound_to 1176
  -15.4096  -28.9022  -37.0995 LP  0  0  0  0  0  0  0  0  0  0  0  0  # atno 5215 bound_to 1247
  -15.8191  -27.3788  -37.5216 LP  0  0  0  0  0  0  0  0  0  0  0  0  # atno 5216 bound_to 1247
  -13.6696  -24.8930  -40.2873 LP  0  0  0  0  0  0  0  0  0  0  0  0  # atno 5217 bound_to 1931
  -12.5890  -23.7775  -39.7827 LP  0  0  0  0  0  0  0  0  0  0  0  0  # atno 5218 bound_to 1931
  -11.3614  -22.2859  -30.7673 LP  0  0  0  0  0  0  0  0  0  0  0  0  # atno 5224 bound_to 1070
  -12.7968  -23.0065  -30.4721 LP  0  0  0  0  0  0  0  0  0  0  0  0  # atno 5225 bound_to 1070

$$$$
IA_196.cdx|SeH_inactivess_minimized|sdf|95|dock2
  -GOLD-   4172120333D 1   1.00000     0.00000

 21 21  0  0  0  0  0  0  0  0  1 V2000
  -11.7269  -25.2226  -36.5880 C   0  0  0  0  0  0  0  0  0  0  0  0
   -8.9385  -28.2112  -34.9700 C   0  0  0  0  0  0  0  0  0  0  0  0
   -8.7024  -29.4545  -35.5563 C   0  0  0  0  0  0  0  0  0  0  0  0
  -10.9657  -29.0665  -33.9720 C   0  0  0  0  0  0  0  0  0  0  0  0
  -10.0700  -28.0171  -34.1778 C   0  0  0  0  0  0  0  0  0  0  0  0
   -9.5980  -30.5040  -35.3506 C   0  0  0  0  0  0  0  0  0  0  0  0
  -10.7296  -30.3099  -34.5585 C   0  0  0  0  0  0  0  0  0  0  0  0
  -11.1303  -25.7657  -34.4645 C   0  0  0  0  0  0  0  0  0  0  0  0
  -10.3213  -26.6870  -33.5517 C   0  0  0  0  0  0  0  0  0  0  0  0
  -12.3125  -24.5466  -37.3275 N   0  0  0  0  0  0  0  0  0  0  0  0
  -11.0537  -26.0125  -35.7393 N   0  0  0  0  0  0  0  0  0  0  0  0
  -11.8304  -24.7618  -33.8314 N   0  0  0  0  0  0  0  0  0  0  0  0
   -9.2501  -32.0202  -36.1048 Cl  0  0  0  0  0  0  0  0  0  0  0  0
  -11.8759  -31.5708  -34.2662 Cl  0  0  0  0  0  0  0  0  0  0  0  0
   -8.2356  -27.3986  -35.1363 H   0  0  0  0  0  0  0  0  0  0  0  0
   -7.8154  -29.5877  -36.1709 H   0  0  0  0  0  0  0  0  0  0  0  0
  -11.8455  -28.9068  -33.3529 H   0  0  0  0  0  0  0  0  0  0  0  0
   -9.3735  -26.1875  -33.2929 H   0  0  0  0  0  0  0  0  0  0  0  0
  -10.8622  -26.8028  -32.5980 H   0  0  0  0  0  0  0  0  0  0  0  0
  -11.8061  -24.6470  -32.8241 H   0  0  0  0  0  0  0  0  0  0  0  0
  -12.3999  -24.1016  -34.3508 H   0  0  0  0  0  0  0  0  0  0  0  0
  1 10  3  0  0  0  0
  1 11  1  0  0  0  0
  2  3  1  0  0  0  0
  2  5  2  0  0  0  0
  3  6  2  0  0  0  0
  4  5  1  0  0  0  0
  4  7  2  0  0  0  0
  5  9  1  0  0  0  0
  6  7  1  0  0  0  0
  6 13  1  0  0  0  0
  7 14  1  0  0  0  0
  8  9  1  0  0  0  0
  8 11  2  0  0  0  0
  8 12  1  0  0  0  0
  2 15  1  0  0  0  0
  3 16  1  0  0  0  0
  4 17  1  0  0  0  0
  9 18  1  0  0  0  0
  9 19  1  0  0  0  0
 12 20  1  0  0  0  0
 12 21  1  0  0  0  0
M  END
> <Name>
IA_196.cdx

> <SourceTag>
IA_196

> <Gold.Version>
5.2

> <Gold.Id.Protein>
6HGV|6HGV_protein|mol2

> <Gold.Goldscore.Fitness>
42.2119

> <Gold.Goldscore.Internal.Vdw>
0.4184

> <Gold.Goldscore.Internal.Torsion>
-1.0163

> <Gold.Goldscore.External.Vdw>
29.2203

> <Gold.Goldscore.Internal.HBond>
0.0000

> <Gold.Goldscore.External.HBond>
2.4758

> <Gold.Goldscore.Internal.Correction>
-0.1561

> <Gold.Goldscore.Hbonds>
donor molecule, donor type, donor heavy atom, donor atom, acceptor molecule, acceptor atom, score
      P1  H  1931  4507       L1    10  0.50
      L1  H    12    20       P1  1070  0.21
      L1  H    12    21       P1   853  0.17

> <Gold.Goldscore.Internal.Vdw.Weighted>
0.4184

> <Gold.Goldscore.Internal.Torsion.Weighted>
-1.0163

> <Gold.Goldscore.External.Vdw.Weighted>
40.1780

> <Gold.Goldscore.Internal.HBond.Weighted>
0.0000

> <Gold.Goldscore.External.HBond.Weighted>
2.4758

> <Gold.Goldscore.Internal.Correction.Weighted>
-0.1561

> <Gold.Protein.RotatedTorsions>
[ 3781 1176 1175 1172 ] final -105.76 input   60.00 | X-H torsion
[ 3847 1247 1246 1244 ] final  168.28 input   60.00 | X-H torsion
[ 4507 1931 1930 1928 ] final   61.84 input   60.00 | X-H torsion
[ 3677 1070 1069 1066 ] final   68.60 input   60.00 | X-H torsion
[ 3525  925  924  922 ] final  -50.93 input   59.99 | X-H torsion
[ 4531 1957 1955 1953 ] final   79.44 input   60.00 | X-H torsion

> <Gold.Protein.ActiveResidues>
 PHE267  PRO268  MET310  ASP335  TRP336  MET339  TYR343  THR360  PRO361  ILE363 
 PRO371  SER374  ILE375  ASN378  PHE381  TYR383  GLN384  PHE387  LEU408  LEU417 
 MET419  LEU428  TYR466  MET469  ASN472  ASP496  VAL498  LEU499  MET503  HIS524 
 TRP525 

> <Gold.Protein.RotatedAtoms>
   -3.7482  -29.5524  -29.6849 H   0  0  0  0  0  0  0  0  0  0  0  0  # atno 3525 bound_to 925 
  -12.3270  -22.3597  -30.3317 H   0  0  0  0  0  0  0  0  0  0  0  0  # atno 3677 bound_to 1070
   -9.6216  -36.3564  -33.9222 H   0  0  0  0  0  0  0  0  0  0  0  0  # atno 3781 bound_to 1176
  -14.5357  -27.5797  -37.9512 H   0  0  0  0  0  0  0  0  0  0  0  0  # atno 3847 bound_to 1247
  -12.6240  -24.6413  -38.8126 H   0  0  0  0  0  0  0  0  0  0  0  0  # atno 4507 bound_to 1931
   -2.9146  -33.6960  -36.6987 H   0  0  0  0  0  0  0  0  0  0  0  0  # atno 4531 bound_to 1957
   -9.6554  -36.9441  -32.4052 LP  0  0  0  0  0  0  0  0  0  0  0  0  # atno 5205 bound_to 1176
  -10.8366  -37.3363  -33.4623 LP  0  0  0  0  0  0  0  0  0  0  0  0  # atno 5206 bound_to 1176
  -15.0035  -28.9642  -37.2353 LP  0  0  0  0  0  0  0  0  0  0  0  0  # atno 5215 bound_to 1247
  -16.0299  -27.6967  -37.3172 LP  0  0  0  0  0  0  0  0  0  0  0  0  # atno 5216 bound_to 1247
  -13.6832  -25.2422  -39.8920 LP  0  0  0  0  0  0  0  0  0  0  0  0  # atno 5217 bound_to 1931
  -12.8906  -23.8502  -40.2094 LP  0  0  0  0  0  0  0  0  0  0  0  0  # atno 5218 bound_to 1931
  -12.4376  -23.7920  -31.0960 LP  0  0  0  0  0  0  0  0  0  0  0  0  # atno 5224 bound_to 1070
  -11.0869  -22.8863  -31.2443 LP  0  0  0  0  0  0  0  0  0  0  0  0  # atno 5225 bound_to 1070

$$$$
IA_207.cdx|SeH_inactivess_minimized|sdf|104|dock3
  -GOLD-   4172120503D 1   1.00000     0.00000

 24 24  0  0  0  0  0  0  0  0  1 V2000
   -8.5923  -30.1511  -35.7018 C   0  0  0  0  0  0  0  0  0  0  0  0
   -7.8178  -31.3051  -35.8202 C   0  0  0  0  0  0  0  0  0  0  0  0
   -6.7550  -29.0307  -34.6036 C   0  0  0  0  0  0  0  0  0  0  0  0
   -8.0609  -29.0138  -35.0936 C   0  0  0  0  0  0  0  0  0  0  0  0
   -6.5119  -31.3219  -35.3302 C   0  0  0  0  0  0  0  0  0  0  0  0
   -5.9805  -30.1847  -34.7219 C   0  0  0  0  0  0  0  0  0  0  0  0
   -9.8001  -27.3582  -35.8751 C   0  0  0  0  0  0  0  0  0  0  0  0
  -11.6714  -25.6892  -36.0447 C   0  0  0  0  0  0  0  0  0  0  0  0
   -9.8400  -25.2970  -34.4314 C   0  0  0  0  0  0  0  0  0  0  0  0
   -8.8478  -27.8413  -34.9741 N   0  0  0  0  0  0  0  0  0  0  0  0
  -10.4180  -26.1540  -35.4645 N   0  0  0  0  0  0  0  0  0  0  0  0
  -10.0802  -27.8999  -36.9466 O   0  0  0  0  0  0  0  0  0  0  0  0
   -5.6043  -32.7828  -35.5041 Cl  0  0  0  0  0  0  0  0  0  0  0  0
   -4.3705  -30.1445  -34.0935 Cl  0  0  0  0  0  0  0  0  0  0  0  0
   -9.6083  -30.1480  -36.0885 H   0  0  0  0  0  0  0  0  0  0  0  0
   -8.2478  -32.1816  -36.2985 H   0  0  0  0  0  0  0  0  0  0  0  0
   -6.3464  -28.1407  -34.1289 H   0  0  0  0  0  0  0  0  0  0  0  0
  -12.3596  -25.3796  -35.2537 H   0  0  0  0  0  0  0  0  0  0  0  0
  -12.1392  -26.4894  -36.6248 H   0  0  0  0  0  0  0  0  0  0  0  0
  -11.4892  -24.8376  -36.7058 H   0  0  0  0  0  0  0  0  0  0  0  0
  -10.0354  -25.7178  -33.4416 H   0  0  0  0  0  0  0  0  0  0  0  0
  -10.2784  -24.2967  -34.4812 H   0  0  0  0  0  0  0  0  0  0  0  0
   -8.7589  -25.2133  -34.5711 H   0  0  0  0  0  0  0  0  0  0  0  0
   -8.7025  -27.2877  -34.1360 H   0  0  0  0  0  0  0  0  0  0  0  0
  1  2  2  0  0  0  0
  1  4  1  0  0  0  0
  2  5  1  0  0  0  0
  3  4  2  0  0  0  0
  3  6  1  0  0  0  0
  4 10  1  0  0  0  0
  5  6  2  0  0  0  0
  5 13  1  0  0  0  0
  6 14  1  0  0  0  0
  7 10  1  0  0  0  0
  7 11  1  0  0  0  0
  7 12  2  0  0  0  0
  8 11  1  0  0  0  0
  9 11  1  0  0  0  0
  1 15  1  0  0  0  0
  2 16  1  0  0  0  0
  3 17  1  0  0  0  0
  8 18  1  0  0  0  0
  8 19  1  0  0  0  0
  8 20  1  0  0  0  0
  9 21  1  0  0  0  0
  9 22  1  0  0  0  0
  9 23  1  0  0  0  0
 10 24  1  0  0  0  0
M  END
> <Name>
IA_207.cdx

> <SourceTag>
IA_207

> <Gold.Version>
5.2

> <Gold.Id.Protein>
6HGV|6HGV_protein|mol2

> <Gold.Goldscore.Fitness>
45.9500

> <Gold.Goldscore.Internal.Vdw>
-6.5537

> <Gold.Goldscore.Internal.Torsion>
-5.7980

> <Gold.Goldscore.External.Vdw>
33.6160

> <Gold.Goldscore.Internal.HBond>
0.0000

> <Gold.Goldscore.External.HBond>
0.0000

> <Gold.Goldscore.Internal.Correction>
-12.0797

> <Gold.Goldscore.Internal.Vdw.Weighted>
-6.5537

> <Gold.Goldscore.Internal.Torsion.Weighted>
-5.7980

> <Gold.Goldscore.External.Vdw.Weighted>
46.2220

> <Gold.Goldscore.Internal.HBond.Weighted>
0.0000

> <Gold.Goldscore.External.HBond.Weighted>
0.0000

> <Gold.Goldscore.Internal.Correction.Weighted>
-12.0797

> <Gold.Protein.RotatedTorsions>
[ 3781 1176 1175 1172 ] final -128.59 input   60.00 | X-H torsion
[ 3847 1247 1246 1244 ] final -148.46 input   60.00 | X-H torsion
[ 4507 1931 1930 1928 ] final   33.42 input   60.00 | X-H torsion
[ 3677 1070 1069 1066 ] final  -68.43 input   60.00 | X-H torsion
[ 3525  925  924  922 ] final    9.40 input   59.99 | X-H torsion
[ 4531 1957 1955 1953 ] final  -11.73 input   60.00 | X-H torsion

> <Gold.Protein.ActiveResidues>
 PHE267  PRO268  MET310  ASP335  TRP336  MET339  TYR343  THR360  PRO361  ILE363 
 PRO371  SER374  ILE375  ASN378  PHE381  TYR383  GLN384  PHE387  LEU408  LEU417 
 MET419  LEU428  TYR466  MET469  ASN472  ASP496  VAL498  LEU499  MET503  HIS524 
 TRP525 

> <Gold.Protein.RotatedAtoms>
   -3.5031  -29.5762  -30.5930 H   0  0  0  0  0  0  0  0  0  0  0  0  # atno 3525 bound_to 925 
  -12.2032  -23.8431  -31.2373 H   0  0  0  0  0  0  0  0  0  0  0  0  # atno 3677 bound_to 1070
   -9.3913  -36.3101  -33.6355 H   0  0  0  0  0  0  0  0  0  0  0  0  # atno 3781 bound_to 1176
  -15.1165  -27.2176  -37.8617 H   0  0  0  0  0  0  0  0  0  0  0  0  # atno 3847 bound_to 1247
  -12.8933  -25.0136  -38.8253 H   0  0  0  0  0  0  0  0  0  0  0  0  # atno 4507 bound_to 1931
   -2.7164  -32.3732  -36.7136 H   0  0  0  0  0  0  0  0  0  0  0  0  # atno 4531 bound_to 1957
   -9.9579  -37.1597  -32.3686 LP  0  0  0  0  0  0  0  0  0  0  0  0  # atno 5205 bound_to 1176
  -10.7661  -37.1673  -33.7876 LP  0  0  0  0  0  0  0  0  0  0  0  0  # atno 5206 bound_to 1176
  -14.4602  -28.6755  -37.5589 LP  0  0  0  0  0  0  0  0  0  0  0  0  # atno 5215 bound_to 1247
  -15.9882  -28.3501  -37.0836 LP  0  0  0  0  0  0  0  0  0  0  0  0  # atno 5216 bound_to 1247
  -13.6824  -24.9449  -40.2468 LP  0  0  0  0  0  0  0  0  0  0  0  0  # atno 5217 bound_to 1931
  -12.6203  -23.7725  -39.8419 LP  0  0  0  0  0  0  0  0  0  0  0  0  # atno 5218 bound_to 1931
  -11.1067  -22.6486  -31.0991 LP  0  0  0  0  0  0  0  0  0  0  0  0  # atno 5224 bound_to 1070
  -12.5423  -22.5360  -30.3292 LP  0  0  0  0  0  0  0  0  0  0  0  0  # atno 5225 bound_to 1070

$$$$
IA_138.cdx|SeH_inactivess_minimized|sdf|40|dock5
  -GOLD-   4172119293D 1   1.00000     0.00000

 39 40  0  0  0  0  0  0  0  0  1 V2000
  -18.9420  -23.2529  -39.2063 C   0  0  0  0  0  0  0  0  0  0  0  0
  -17.7486  -22.7015  -39.6628 C   0  0  0  0  0  0  0  0  0  0  0  0
  -18.9361  -24.1323  -38.1233 C   0  0  0  0  0  0  0  0  0  0  0  0
  -16.5445  -23.0275  -39.0378 C   0  0  0  0  0  0  0  0  0  0  0  0
  -17.7090  -25.3550  -36.3907 C   0  0  0  0  0  0  0  0  0  0  0  0
  -16.5048  -25.6810  -35.7659 C   0  0  0  0  0  0  0  0  0  0  0  0
  -15.3172  -24.2501  -37.3053 C   0  0  0  0  0  0  0  0  0  0  0  0
  -17.7336  -24.4716  -37.4823 C   0  0  0  0  0  0  0  0  0  0  0  0
  -16.5198  -23.9109  -37.9463 C   0  0  0  0  0  0  0  0  0  0  0  0
  -15.3114  -25.1296  -36.2223 C   0  0  0  0  0  0  0  0  0  0  0  0
   -9.5132  -30.6279  -35.6013 C   0  0  0  0  0  0  0  0  0  0  0  0
  -12.7935  -25.2568  -36.0644 C   0  0  0  0  0  0  0  0  0  0  0  0
   -9.1727  -29.3219  -34.9282 C   0  0  0  0  0  0  0  0  0  0  0  0
  -10.0258  -28.1635  -35.4384 C   0  0  0  0  0  0  0  0  0  0  0  0
   -9.6785  -26.8363  -34.7532 C   0  0  0  0  0  0  0  0  0  0  0  0
  -10.4302  -25.6501  -35.3507 C   0  0  0  0  0  0  0  0  0  0  0  0
  -14.0914  -25.4613  -35.5879 N   0  0  0  0  0  0  0  0  0  0  0  0
  -11.8498  -25.7245  -35.1381 N   0  0  0  0  0  0  0  0  0  0  0  0
   -8.7250  -31.2731  -36.2802 O   0  0  0  0  0  0  0  0  0  0  0  0
  -12.4788  -24.7441  -37.1359 O   0  0  0  0  0  0  0  0  0  0  0  0
  -10.7916  -31.0169  -35.3693 O   0  0  0  0  0  0  0  0  0  0  0  0
  -19.8791  -22.9983  -39.6929 H   0  0  0  0  0  0  0  0  0  0  0  0
  -17.7539  -22.0172  -40.5062 H   0  0  0  0  0  0  0  0  0  0  0  0
  -19.8811  -24.5515  -37.7837 H   0  0  0  0  0  0  0  0  0  0  0  0
  -15.6234  -22.5850  -39.4118 H   0  0  0  0  0  0  0  0  0  0  0  0
  -18.6297  -25.7982  -36.0173 H   0  0  0  0  0  0  0  0  0  0  0  0
  -16.5121  -26.3674  -34.9228 H   0  0  0  0  0  0  0  0  0  0  0  0
  -14.3774  -23.8246  -37.6546 H   0  0  0  0  0  0  0  0  0  0  0  0
   -8.1086  -29.1172  -35.0942 H   0  0  0  0  0  0  0  0  0  0  0  0
   -9.2939  -29.4483  -33.8460 H   0  0  0  0  0  0  0  0  0  0  0  0
  -11.0878  -28.3923  -35.2958 H   0  0  0  0  0  0  0  0  0  0  0  0
   -9.8616  -28.0622  -36.5180 H   0  0  0  0  0  0  0  0  0  0  0  0
   -8.6026  -26.6523  -34.8605 H   0  0  0  0  0  0  0  0  0  0  0  0
   -9.8903  -26.9016  -33.6793 H   0  0  0  0  0  0  0  0  0  0  0  0
  -10.2572  -25.5689  -36.4281 H   0  0  0  0  0  0  0  0  0  0  0  0
  -10.0882  -24.7227  -34.8801 H   0  0  0  0  0  0  0  0  0  0  0  0
  -14.1739  -25.9010  -34.6747 H   0  0  0  0  0  0  0  0  0  0  0  0
  -12.1876  -26.1377  -34.2704 H   0  0  0  0  0  0  0  0  0  0  0  0
  -11.0436  -31.8770  -35.7683 H   0  0  0  0  0  0  0  0  0  0  0  0
  1  2  1  0  0  0  0
  1  3  2  0  0  0  0
  2  4  2  0  0  0  0
  3  8  1  0  0  0  0
  4  9  1  0  0  0  0
  5  6  1  0  0  0  0
  5  8  2  0  0  0  0
  6 10  2  0  0  0  0
  7  9  2  0  0  0  0
  7 10  1  0  0  0  0
  8  9  1  0  0  0  0
 10 17  1  0  0  0  0
 11 13  1  0  0  0  0
 11 19  2  0  0  0  0
 11 21  1  0  0  0  0
 12 17  1  0  0  0  0
 12 18  1  0  0  0  0
 12 20  2  0  0  0  0
 13 14  1  0  0  0  0
 14 15  1  0  0  0  0
 15 16  1  0  0  0  0
 16 18  1  0  0  0  0
  1 22  1  0  0  0  0
  2 23  1  0  0  0  0
  3 24  1  0  0  0  0
  4 25  1  0  0  0  0
  5 26  1  0  0  0  0
  6 27  1  0  0  0  0
  7 28  1  0  0  0  0
 13 29  1  0  0  0  0
 13 30  1  0  0  0  0
 14 31  1  0  0  0  0
 14 32  1  0  0  0  0
 15 33  1  0  0  0  0
 15 34  1  0  0  0  0
 16 35  1  0  0  0  0
 16 36  1  0  0  0  0
 17 37  1  0  0  0  0
 18 38  1  0  0  0  0
 21 39  1  0  0  0  0
M  END
> <Name>
IA_138.cdx

> <SourceTag>
IA_138

> <Gold.Version>
5.2

> <Gold.Id.Protein>
6HGV|6HGV_protein|mol2

> <Gold.Goldscore.Fitness>
59.6098

> <Gold.Goldscore.Internal.Vdw>
-3.9172

> <Gold.Goldscore.Internal.Torsion>
-1.6902

> <Gold.Goldscore.External.Vdw>
43.1221

> <Gold.Goldscore.Internal.HBond>
0.0000

> <Gold.Goldscore.External.HBond>
2.0220

> <Gold.Goldscore.Internal.Correction>
-3.9023

> <Gold.Goldscore.Hbonds>
donor molecule, donor type, donor heavy atom, donor atom, acceptor molecule, acceptor atom, score
      P1  H  1256  3854       L1    21  0.01
      P1  H  1931  4507       L1    20  1.00

> <Gold.Goldscore.Internal.Vdw.Weighted>
-3.9172

> <Gold.Goldscore.Internal.Torsion.Weighted>
-1.6902

> <Gold.Goldscore.External.Vdw.Weighted>
59.2930

> <Gold.Goldscore.Internal.HBond.Weighted>
0.0000

> <Gold.Goldscore.External.HBond.Weighted>
2.0220

> <Gold.Goldscore.Internal.Correction.Weighted>
-3.9023

> <Gold.Protein.RotatedTorsions>
[ 3781 1176 1175 1172 ] final   29.69 input   60.00 | X-H torsion
[ 3847 1247 1246 1244 ] final  155.91 input   60.00 | X-H torsion
[ 4507 1931 1930 1928 ] final   44.78 input   60.00 | X-H torsion
[ 3677 1070 1069 1066 ] final -110.99 input   60.00 | X-H torsion
[ 3525  925  924  922 ] final  -20.51 input   59.99 | X-H torsion
[ 4531 1957 1955 1953 ] final  -75.24 input   60.00 | X-H torsion

> <Gold.Protein.ActiveResidues>
 PHE267  PRO268  MET310  ASP335  TRP336  MET339  TYR343  THR360  PRO361  ILE363 
 PRO371  SER374  ILE375  ASN378  PHE381  TYR383  GLN384  PHE387  LEU408  LEU417 
 MET419  LEU428  TYR466  MET469  ASN472  ASP496  VAL498  LEU499  MET503  HIS524 
 TRP525 

> <Gold.Protein.RotatedAtoms>
   -3.7360  -29.5129  -30.1744 H   0  0  0  0  0  0  0  0  0  0  0  0  # atno 3525 bound_to 925 
  -11.5800  -23.6678  -31.4439 H   0  0  0  0  0  0  0  0  0  0  0  0  # atno 3677 bound_to 1070
  -10.8065  -37.4091  -33.2223 H   0  0  0  0  0  0  0  0  0  0  0  0  # atno 3781 bound_to 1176
  -14.4248  -27.7470  -37.9307 H   0  0  0  0  0  0  0  0  0  0  0  0  # atno 3847 bound_to 1247
  -12.7768  -24.8728  -38.7955 H   0  0  0  0  0  0  0  0  0  0  0  0  # atno 4507 bound_to 1931
   -1.7505  -32.3016  -36.8959 H   0  0  0  0  0  0  0  0  0  0  0  0  # atno 4531 bound_to 1957
   -9.8167  -36.4301  -34.0648 LP  0  0  0  0  0  0  0  0  0  0  0  0  # atno 5205 bound_to 1176
   -9.4821  -36.7902  -32.5075 LP  0  0  0  0  0  0  0  0  0  0  0  0  # atno 5206 bound_to 1176
  -15.1932  -28.9586  -37.1629 LP  0  0  0  0  0  0  0  0  0  0  0  0  # atno 5215 bound_to 1247
  -15.9518  -27.5339  -37.4102 LP  0  0  0  0  0  0  0  0  0  0  0  0  # atno 5216 bound_to 1247
  -13.7014  -25.0790  -40.1185 LP  0  0  0  0  0  0  0  0  0  0  0  0  # atno 5217 bound_to 1931
  -12.7186  -23.7803  -40.0001 LP  0  0  0  0  0  0  0  0  0  0  0  0  # atno 5218 bound_to 1931
  -11.4607  -22.2318  -30.6877 LP  0  0  0  0  0  0  0  0  0  0  0  0  # atno 5224 bound_to 1070
  -12.8160  -23.1293  -30.5325 LP  0  0  0  0  0  0  0  0  0  0  0  0  # atno 5225 bound_to 1070

$$$$
IA_178.cdx|SeH_inactivess_minimized|sdf|79|dock10
  -GOLD-   4172120223D 1   1.00000     0.00000

 23 24  0  0  0  0  0  0  0  0  1 V2000
  -14.4489  -24.3595  -37.3288 C   0  0  0  0  0  0  0  0  0  0  0  0
  -15.8223  -25.6931  -35.8548 C   0  0  0  0  0  0  0  0  0  0  0  0
  -15.5936  -23.7551  -37.8486 C   0  0  0  0  0  0  0  0  0  0  0  0
  -16.9669  -25.0887  -36.3746 C   0  0  0  0  0  0  0  0  0  0  0  0
  -14.5633  -25.3285  -36.3319 C   0  0  0  0  0  0  0  0  0  0  0  0
  -16.8526  -24.1198  -37.3715 C   0  0  0  0  0  0  0  0  0  0  0  0
  -13.2570  -27.2458  -35.4034 C   0  0  0  0  0  0  0  0  0  0  0  0
  -12.0100  -27.4400  -34.9639 C   0  0  0  0  0  0  0  0  0  0  0  0
  -12.1576  -25.2549  -35.6059 C   0  0  0  0  0  0  0  0  0  0  0  0
   -9.9320  -26.0852  -34.6893 C   0  0  0  0  0  0  0  0  0  0  0  0
  -13.4238  -25.9298  -35.8143 N   0  0  0  0  0  0  0  0  0  0  0  0
  -11.3108  -26.2677  -35.0670 N   0  0  0  0  0  0  0  0  0  0  0  0
  -11.8849  -24.0866  -35.8407 O   0  0  0  0  0  0  0  0  0  0  0  0
  -18.2650  -23.3738  -38.0130 Cl  0  0  0  0  0  0  0  0  0  0  0  0
  -13.4729  -24.0682  -37.7080 H   0  0  0  0  0  0  0  0  0  0  0  0
  -15.9230  -26.4469  -35.0783 H   0  0  0  0  0  0  0  0  0  0  0  0
  -15.4897  -23.0016  -38.6248 H   0  0  0  0  0  0  0  0  0  0  0  0
  -17.9417  -25.3824  -35.9937 H   0  0  0  0  0  0  0  0  0  0  0  0
  -14.0669  -27.9560  -35.4605 H   0  0  0  0  0  0  0  0  0  0  0  0
  -11.5604  -28.3407  -34.5789 H   0  0  0  0  0  0  0  0  0  0  0  0
   -9.8149  -26.2320  -33.6124 H   0  0  0  0  0  0  0  0  0  0  0  0
   -9.6006  -25.0752  -34.9450 H   0  0  0  0  0  0  0  0  0  0  0  0
   -9.2980  -26.8054  -35.2136 H   0  0  0  0  0  0  0  0  0  0  0  0
  1  3  1  0  0  0  0
  1  5  2  0  0  0  0
  2  4  2  0  0  0  0
  2  5  1  0  0  0  0
  3  6  2  0  0  0  0
  4  6  1  0  0  0  0
  5 11  1  0  0  0  0
  6 14  1  0  0  0  0
  7  8  2  0  0  0  0
  7 11  1  0  0  0  0
  8 12  1  0  0  0  0
  9 11  1  0  0  0  0
  9 12  1  0  0  0  0
  9 13  2  0  0  0  0
 10 12  1  0  0  0  0
  1 15  1  0  0  0  0
  2 16  1  0  0  0  0
  3 17  1  0  0  0  0
  4 18  1  0  0  0  0
  7 19  1  0  0  0  0
  8 20  1  0  0  0  0
 10 21  1  0  0  0  0
 10 22  1  0  0  0  0
 10 23  1  0  0  0  0
M  END
> <Name>
IA_178.cdx

> <SourceTag>
IA_178

> <Gold.Version>
5.2

> <Gold.Id.Protein>
6HGV|6HGV_protein|mol2

> <Gold.Goldscore.Fitness>
42.3449

> <Gold.Goldscore.Internal.Vdw>
0.2359

> <Gold.Goldscore.Internal.Torsion>
-2.8091

> <Gold.Goldscore.External.Vdw>
30.8255

> <Gold.Goldscore.Internal.HBond>
0.0000

> <Gold.Goldscore.External.HBond>
0.0000

> <Gold.Goldscore.Internal.Correction>
-2.5332

> <Gold.Goldscore.Internal.Vdw.Weighted>
0.2359

> <Gold.Goldscore.Internal.Torsion.Weighted>
-2.8091

> <Gold.Goldscore.External.Vdw.Weighted>
42.3850

> <Gold.Goldscore.Internal.HBond.Weighted>
0.0000

> <Gold.Goldscore.External.HBond.Weighted>
0.0000

> <Gold.Goldscore.Internal.Correction.Weighted>
-2.5332

> <Gold.Protein.RotatedTorsions>
[ 3781 1176 1175 1172 ] final   88.41 input   60.00 | X-H torsion
[ 3847 1247 1246 1244 ] final  161.66 input   60.00 | X-H torsion
[ 4507 1931 1930 1928 ] final  -72.44 input   60.00 | X-H torsion
[ 3677 1070 1069 1066 ] final -107.79 input   60.00 | X-H torsion
[ 3525  925  924  922 ] final  -96.98 input   59.99 | X-H torsion
[ 4531 1957 1955 1953 ] final  -73.83 input   60.00 | X-H torsion

> <Gold.Protein.ActiveResidues>
 PHE267  PRO268  MET310  ASP335  TRP336  MET339  TYR343  THR360  PRO361  ILE363 
 PRO371  SER374  ILE375  ASN378  PHE381  TYR383  GLN384  PHE387  LEU408  LEU417 
 MET419  LEU428  TYR466  MET469  ASN472  ASP496  VAL498  LEU499  MET503  HIS524 
 TRP525 

> <Gold.Protein.RotatedAtoms>
   -3.3468  -29.7794  -29.1159 H   0  0  0  0  0  0  0  0  0  0  0  0  # atno 3525 bound_to 925 
  -11.6240  -23.6955  -31.4380 H   0  0  0  0  0  0  0  0  0  0  0  0  # atno 3677 bound_to 1070
  -10.2721  -37.3306  -32.4799 H   0  0  0  0  0  0  0  0  0  0  0  0  # atno 3781 bound_to 1176
  -14.4722  -27.6668  -37.9428 H   0  0  0  0  0  0  0  0  0  0  0  0  # atno 3847 bound_to 1247
  -13.6961  -25.1066  -40.0818 H   0  0  0  0  0  0  0  0  0  0  0  0  # atno 4507 bound_to 1931
   -1.7706  -32.2912  -36.8919 H   0  0  0  0  0  0  0  0  0  0  0  0  # atno 4531 bound_to 1957
  -10.5796  -36.9513  -34.0322 LP  0  0  0  0  0  0  0  0  0  0  0  0  # atno 5205 bound_to 1176
   -9.2573  -36.3480  -33.2878 LP  0  0  0  0  0  0  0  0  0  0  0  0  # atno 5206 bound_to 1176
  -15.1045  -28.9664  -37.1948 LP  0  0  0  0  0  0  0  0  0  0  0  0  # atno 5215 bound_to 1247
  -15.9928  -27.6069  -37.3662 LP  0  0  0  0  0  0  0  0  0  0  0  0  # atno 5216 bound_to 1247
  -12.7450  -23.7870  -40.0370 LP  0  0  0  0  0  0  0  0  0  0  0  0  # atno 5217 bound_to 1931
  -12.7492  -24.8368  -38.7862 LP  0  0  0  0  0  0  0  0  0  0  0  0  # atno 5218 bound_to 1931
  -11.4215  -22.2505  -30.7176 LP  0  0  0  0  0  0  0  0  0  0  0  0  # atno 5224 bound_to 1070
  -12.8108  -23.0827  -30.5085 LP  0  0  0  0  0  0  0  0  0  0  0  0  # atno 5225 bound_to 1070

$$$$
IA_58|SeH_inactivess_minimized|sdf|143|dock3
  -GOLD-   4172121573D 1   1.00000     0.00000

 59 63  0  0  0  0  0  0  0  0  1 V2000
  -13.4429  -25.4265  -37.0812 C   0  0  0  0  0  0  0  0  0  0  0  0
  -11.9679  -30.0899  -32.5242 C   0  0  0  0  0  0  0  0  0  0  0  0
  -11.0122  -30.2492  -33.7015 C   0  0  0  0  0  0  0  0  0  0  0  0
  -18.3945  -23.6150  -37.6417 C   0  0  0  0  0  0  0  0  0  0  0  0
  -17.9588  -25.8760  -38.6352 C   0  0  0  0  0  0  0  0  0  0  0  0
  -17.5518  -23.8092  -39.9959 C   0  0  0  0  0  0  0  0  0  0  0  0
  -16.4576  -24.9876  -36.8340 C   0  0  0  0  0  0  0  0  0  0  0  0
  -16.0503  -22.9185  -38.1961 C   0  0  0  0  0  0  0  0  0  0  0  0
  -15.6139  -25.1828  -39.1918 C   0  0  0  0  0  0  0  0  0  0  0  0
  -11.3272  -29.0423  -31.6183 C   0  0  0  0  0  0  0  0  0  0  0  0
   -8.8798  -29.0026  -34.4304 C   0  0  0  0  0  0  0  0  0  0  0  0
  -10.7978  -27.2705  -33.1870 C   0  0  0  0  0  0  0  0  0  0  0  0
  -17.9083  -25.0432  -37.3430 C   0  0  0  0  0  0  0  0  0  0  0  0
  -17.4993  -22.9657  -38.7107 C   0  0  0  0  0  0  0  0  0  0  0  0
  -17.0615  -25.2387  -39.7097 C   0  0  0  0  0  0  0  0  0  0  0  0
   -9.7588  -29.4870  -33.2751 C   0  0  1  0  0  0  0  0  0  0  0  0
   -9.7908  -26.7839  -34.2386 C   0  0  2  0  0  0  0  0  0  0  0  0
  -15.5387  -24.3451  -37.8969 C   0  0  0  0  0  0  0  0  0  0  0  0
  -10.3696  -25.6174  -35.0379 C   0  0  0  0  0  0  0  0  0  0  0  0
  -11.1913  -26.0751  -36.2369 C   0  0  0  0  0  0  0  0  0  0  0  0
   -9.4649  -27.8785  -35.1583 N   0  0  0  0  0  0  0  0  0  0  0  0
  -10.2661  -28.4036  -32.4120 N   0  0  2  0  0  0  0  0  0  0  0  0
  -14.1764  -24.2919  -37.4138 N   0  0  0  0  0  0  0  0  0  0  0  0
  -12.1640  -25.0893  -36.6456 N   0  0  0  0  0  0  0  0  0  0  0  0
  -13.8666  -26.5788  -37.1614 O   0  0  0  0  0  0  0  0  0  0  0  0
  -12.9508  -29.7609  -32.8789 H   0  0  0  0  0  0  0  0  0  0  0  0
  -12.1010  -31.0371  -31.9908 H   0  0  0  0  0  0  0  0  0  0  0  0
  -10.7958  -31.3034  -33.9031 H   0  0  0  0  0  0  0  0  0  0  0  0
  -11.4645  -29.8257  -34.6060 H   0  0  0  0  0  0  0  0  0  0  0  0
  -19.4348  -23.6386  -37.9887 H   0  0  0  0  0  0  0  0  0  0  0  0
  -18.3785  -23.0140  -36.7242 H   0  0  0  0  0  0  0  0  0  0  0  0
  -17.6294  -26.9024  -38.4325 H   0  0  0  0  0  0  0  0  0  0  0  0
  -18.9915  -25.9391  -38.9996 H   0  0  0  0  0  0  0  0  0  0  0  0
  -18.5773  -23.8361  -40.3841 H   0  0  0  0  0  0  0  0  0  0  0  0
  -16.9293  -23.3480  -40.7725 H   0  0  0  0  0  0  0  0  0  0  0  0
  -16.4140  -24.4161  -35.8975 H   0  0  0  0  0  0  0  0  0  0  0  0
  -16.1081  -26.0001  -36.5926 H   0  0  0  0  0  0  0  0  0  0  0  0
  -15.4061  -22.4327  -38.9409 H   0  0  0  0  0  0  0  0  0  0  0  0
  -15.9960  -22.2980  -37.2918 H   0  0  0  0  0  0  0  0  0  0  0  0
  -15.2439  -26.2001  -39.0081 H   0  0  0  0  0  0  0  0  0  0  0  0
  -14.9603  -24.7525  -39.9621 H   0  0  0  0  0  0  0  0  0  0  0  0
  -12.0586  -28.3320  -31.2166 H   0  0  0  0  0  0  0  0  0  0  0  0
  -10.8661  -29.5398  -30.7559 H   0  0  0  0  0  0  0  0  0  0  0  0
   -7.8982  -28.7030  -34.0410 H   0  0  0  0  0  0  0  0  0  0  0  0
   -8.7041  -29.8265  -35.1312 H   0  0  0  0  0  0  0  0  0  0  0  0
  -11.0159  -26.4478  -32.4944 H   0  0  0  0  0  0  0  0  0  0  0  0
  -11.7463  -27.5272  -33.6789 H   0  0  0  0  0  0  0  0  0  0  0  0
  -18.5501  -25.5011  -36.5822 H   0  0  0  0  0  0  0  0  0  0  0  0
  -17.8510  -21.9494  -38.9204 H   0  0  0  0  0  0  0  0  0  0  0  0
  -17.1030  -25.8351  -40.6280 H   0  0  0  0  0  0  0  0  0  0  0  0
   -9.1469  -30.1552  -32.6527 H   0  0  0  0  0  0  0  0  0  0  0  0
   -8.8764  -26.4322  -33.7433 H   0  0  0  0  0  0  0  0  0  0  0  0
   -9.5424  -24.9920  -35.3934 H   0  0  0  0  0  0  0  0  0  0  0  0
  -10.9841  -24.9965  -34.3752 H   0  0  0  0  0  0  0  0  0  0  0  0
  -10.5352  -26.2520  -37.0950 H   0  0  0  0  0  0  0  0  0  0  0  0
  -11.7268  -27.0047  -36.0201 H   0  0  0  0  0  0  0  0  0  0  0  0
   -8.8073  -27.5526  -35.8660 H   0  0  0  0  0  0  0  0  0  0  0  0
  -13.7346  -23.3843  -37.3126 H   0  0  0  0  0  0  0  0  0  0  0  0
  -11.8854  -24.1131  -36.6564 H   0  0  0  0  0  0  0  0  0  0  0  0
  1 23  1  0  0  0  0
  1 24  1  0  0  0  0
  1 25  2  0  0  0  0
  2  3  1  0  0  0  0
  2 10  1  0  0  0  0
  3 16  1  0  0  0  0
  4 13  1  0  0  0  0
  4 14  1  0  0  0  0
  5 13  1  0  0  0  0
  5 15  1  0  0  0  0
  6 14  1  0  0  0  0
  6 15  1  0  0  0  0
  7 13  1  0  0  0  0
  7 18  1  0  0  0  0
  8 14  1  0  0  0  0
  8 18  1  0  0  0  0
  9 15  1  0  0  0  0
  9 18  1  0  0  0  0
 10 22  1  0  0  0  0
 11 16  1  0  0  0  0
 11 21  1  0  0  0  0
 12 17  1  0  0  0  0
 12 22  1  0  0  0  0
 16 22  1  0  0  0  0
 17 19  1  0  0  0  0
 17 21  1  0  0  0  0
 18 23  1  0  0  0  0
 19 20  1  0  0  0  0
 20 24  1  0  0  0  0
  2 26  1  0  0  0  0
  2 27  1  0  0  0  0
  3 28  1  0  0  0  0
  3 29  1  0  0  0  0
  4 30  1  0  0  0  0
  4 31  1  0  0  0  0
  5 32  1  0  0  0  0
  5 33  1  0  0  0  0
  6 34  1  0  0  0  0
  6 35  1  0  0  0  0
  7 36  1  0  0  0  0
  7 37  1  0  0  0  0
  8 38  1  0  0  0  0
  8 39  1  0  0  0  0
  9 40  1  0  0  0  0
  9 41  1  0  0  0  0
 10 42  1  0  0  0  0
 10 43  1  0  0  0  0
 11 44  1  0  0  0  0
 11 45  1  0  0  0  0
 12 46  1  0  0  0  0
 12 47  1  0  0  0  0
 13 48  1  0  0  0  0
 14 49  1  0  0  0  0
 15 50  1  0  0  0  0
 16 51  1  0  0  0  0
 17 52  1  0  0  0  0
 19 53  1  0  0  0  0
 19 54  1  0  0  0  0
 20 55  1  0  0  0  0
 20 56  1  0  0  0  0
 21 57  1  0  0  0  0
 23 58  1  0  0  0  0
 24 59  1  0  0  0  0
M  END
> <Name>
IA_58

> <SourceTag>
IA_58

> <Gold.Version>
5.2

> <Gold.Id.Protein>
6HGV|6HGV_protein|mol2

> <Gold.Goldscore.Fitness>
57.7853

> <Gold.Goldscore.Internal.Vdw>
-3.0391

> <Gold.Goldscore.Internal.Torsion>
-3.3946

> <Gold.Goldscore.External.Vdw>
41.2418

> <Gold.Goldscore.Internal.HBond>
0.0000

> <Gold.Goldscore.External.HBond>
3.1031

> <Gold.Goldscore.Internal.Correction>
-4.4084

> <Gold.Goldscore.Hbonds>
donor molecule, donor type, donor heavy atom, donor atom, acceptor molecule, acceptor atom, score
      L1  H    23    58       P1   854  0.42
      L1  H    24    59       P1   854  0.10

> <Gold.Goldscore.Internal.Vdw.Weighted>
-3.0391

> <Gold.Goldscore.Internal.Torsion.Weighted>
-3.3946

> <Gold.Goldscore.External.Vdw.Weighted>
56.7075

> <Gold.Goldscore.Internal.HBond.Weighted>
0.0000

> <Gold.Goldscore.External.HBond.Weighted>
3.1031

> <Gold.Goldscore.Internal.Correction.Weighted>
-4.4084

> <Gold.Protein.RotatedTorsions>
[ 3781 1176 1175 1172 ] final -175.52 input   60.00 | X-H torsion
[ 3847 1247 1246 1244 ] final  -18.63 input   60.00 | X-H torsion
[ 4507 1931 1930 1928 ] final  138.14 input   60.00 | X-H torsion
[ 3677 1070 1069 1066 ] final -104.81 input   60.00 | X-H torsion
[ 3525  925  924  922 ] final    3.84 input   59.99 | X-H torsion
[ 4531 1957 1955 1953 ] final   84.71 input   60.00 | X-H torsion

> <Gold.Protein.ActiveResidues>
 PHE267  PRO268  MET310  ASP335  TRP336  MET339  TYR343  THR360  PRO361  ILE363 
 PRO371  SER374  ILE375  ASN378  PHE381  TYR383  GLN384  PHE387  LEU408  LEU417 
 MET419  LEU428  TYR466  MET469  ASN472  ASP496  VAL498  LEU499  MET503  HIS524 
 TRP525 

> <Gold.Protein.RotatedAtoms>
   -3.5608  -29.5572  -30.5256 H   0  0  0  0  0  0  0  0  0  0  0  0  # atno 3525 bound_to 925 
  -11.6658  -23.7194  -31.4311 H   0  0  0  0  0  0  0  0  0  0  0  0  # atno 3677 bound_to 1070
   -9.2573  -36.4872  -32.9239 H   0  0  0  0  0  0  0  0  0  0  0  0  # atno 3781 bound_to 1176
  -15.9077  -28.4884  -37.0651 H   0  0  0  0  0  0  0  0  0  0  0  0  # atno 3847 bound_to 1247
  -12.5181  -23.8183  -39.6184 H   0  0  0  0  0  0  0  0  0  0  0  0  # atno 4507 bound_to 1931
   -2.8607  -33.7622  -36.7101 H   0  0  0  0  0  0  0  0  0  0  0  0  # atno 4531 bound_to 1957
  -10.5643  -37.4341  -32.7160 LP  0  0  0  0  0  0  0  0  0  0  0  0  # atno 5205 bound_to 1176
  -10.2947  -36.7145  -34.1569 LP  0  0  0  0  0  0  0  0  0  0  0  0  # atno 5206 bound_to 1176
  -15.2668  -27.1914  -37.8101 LP  0  0  0  0  0  0  0  0  0  0  0  0  # atno 5215 bound_to 1247
  -14.3848  -28.5544  -37.6348 LP  0  0  0  0  0  0  0  0  0  0  0  0  # atno 5216 bound_to 1247
  -13.0615  -25.1784  -38.9091 LP  0  0  0  0  0  0  0  0  0  0  0  0  # atno 5217 bound_to 1931
  -13.6190  -24.7428  -40.3809 LP  0  0  0  0  0  0  0  0  0  0  0  0  # atno 5218 bound_to 1931
  -11.3866  -22.2700  -30.7459 LP  0  0  0  0  0  0  0  0  0  0  0  0  # atno 5224 bound_to 1070
  -12.8037  -23.0392  -30.4873 LP  0  0  0  0  0  0  0  0  0  0  0  0  # atno 5225 bound_to 1070

$$$$
IA_81.cdx|SeH_inactivess_minimized|sdf|159|dock10
  -GOLD-   4172122193D 1   1.00000     0.00000

 38 37  0  0  0  0  0  0  0  0  1 V2000
  -13.4581  -25.9212  -36.6731 C   0  0  0  0  0  0  0  0  0  0  0  0
  -16.7187  -25.2959  -37.4282 C   0  0  0  0  0  0  0  0  0  0  0  0
   -9.9960  -29.1370  -34.4295 C   0  0  0  0  0  0  0  0  0  0  0  0
  -12.1315  -30.0949  -33.6084 C   0  0  0  0  0  0  0  0  0  0  0  0
  -11.0227  -28.2876  -32.3023 C   0  0  0  0  0  0  0  0  0  0  0  0
  -10.7014  -25.7029  -34.1324 C   0  0  0  0  0  0  0  0  0  0  0  0
  -10.7041  -26.8304  -36.3482 C   0  0  0  0  0  0  0  0  0  0  0  0
  -12.1766  -27.7812  -34.5609 C   0  0  0  0  0  0  0  0  0  0  0  0
  -15.3682  -24.9856  -37.9782 C   0  0  0  0  0  0  0  0  0  0  0  0
  -11.3183  -28.7827  -33.7245 C   0  0  0  0  0  0  0  0  0  0  0  0
  -11.5780  -26.4624  -35.1315 C   0  0  0  0  0  0  0  0  0  0  0  0
  -14.3814  -24.9102  -36.9257 N   0  0  0  0  0  0  0  0  0  0  0  0
  -12.6336  -25.5851  -35.6087 N   0  0  0  0  0  0  0  0  0  0  0  0
  -13.3841  -26.9714  -37.3099 O   0  0  0  0  0  0  0  0  0  0  0  0
  -17.4539  -25.4009  -38.2334 H   0  0  0  0  0  0  0  0  0  0  0  0
  -16.6968  -26.2178  -36.8368 H   0  0  0  0  0  0  0  0  0  0  0  0
  -17.0490  -24.4810  -36.7731 H   0  0  0  0  0  0  0  0  0  0  0  0
  -10.1257  -29.3247  -35.4966 H   0  0  0  0  0  0  0  0  0  0  0  0
   -9.5336  -30.0246  -33.9834 H   0  0  0  0  0  0  0  0  0  0  0  0
   -9.2749  -28.3150  -34.3453 H   0  0  0  0  0  0  0  0  0  0  0  0
  -12.3297  -30.5257  -34.5965 H   0  0  0  0  0  0  0  0  0  0  0  0
  -13.0966  -29.9221  -33.1184 H   0  0  0  0  0  0  0  0  0  0  0  0
  -11.5945  -30.8473  -33.0192 H   0  0  0  0  0  0  0  0  0  0  0  0
  -10.2257  -27.5346  -32.3067 H   0  0  0  0  0  0  0  0  0  0  0  0
  -11.8975  -27.8188  -31.8422 H   0  0  0  0  0  0  0  0  0  0  0  0
  -10.6913  -29.1089  -31.6576 H   0  0  0  0  0  0  0  0  0  0  0  0
  -11.2021  -25.6116  -33.1606 H   0  0  0  0  0  0  0  0  0  0  0  0
  -10.4785  -24.6903  -34.4849 H   0  0  0  0  0  0  0  0  0  0  0  0
   -9.7612  -26.2260  -33.9358 H   0  0  0  0  0  0  0  0  0  0  0  0
  -11.0906  -27.7167  -36.8638 H   0  0  0  0  0  0  0  0  0  0  0  0
  -10.6663  -26.0077  -37.0723 H   0  0  0  0  0  0  0  0  0  0  0  0
   -9.6708  -27.0400  -36.0470 H   0  0  0  0  0  0  0  0  0  0  0  0
  -13.0369  -27.4905  -33.9387 H   0  0  0  0  0  0  0  0  0  0  0  0
  -12.6104  -28.3468  -35.3986 H   0  0  0  0  0  0  0  0  0  0  0  0
  -15.3774  -24.0222  -38.4967 H   0  0  0  0  0  0  0  0  0  0  0  0
  -15.0477  -25.7608  -38.6805 H   0  0  0  0  0  0  0  0  0  0  0  0
  -14.3602  -24.0798  -36.3419 H   0  0  0  0  0  0  0  0  0  0  0  0
  -12.7313  -24.6803  -35.1687 H   0  0  0  0  0  0  0  0  0  0  0  0
  1 12  1  0  0  0  0
  1 13  1  0  0  0  0
  1 14  2  0  0  0  0
  2  9  1  0  0  0  0
  3 10  1  0  0  0  0
  4 10  1  0  0  0  0
  5 10  1  0  0  0  0
  6 11  1  0  0  0  0
  7 11  1  0  0  0  0
  8 10  1  0  0  0  0
  8 11  1  0  0  0  0
  9 12  1  0  0  0  0
 11 13  1  0  0  0  0
  2 15  1  0  0  0  0
  2 16  1  0  0  0  0
  2 17  1  0  0  0  0
  3 18  1  0  0  0  0
  3 19  1  0  0  0  0
  3 20  1  0  0  0  0
  4 21  1  0  0  0  0
  4 22  1  0  0  0  0
  4 23  1  0  0  0  0
  5 24  1  0  0  0  0
  5 25  1  0  0  0  0
  5 26  1  0  0  0  0
  6 27  1  0  0  0  0
  6 28  1  0  0  0  0
  6 29  1  0  0  0  0
  7 30  1  0  0  0  0
  7 31  1  0  0  0  0
  7 32  1  0  0  0  0
  8 33  1  0  0  0  0
  8 34  1  0  0  0  0
  9 35  1  0  0  0  0
  9 36  1  0  0  0  0
 12 37  1  0  0  0  0
 13 38  1  0  0  0  0
M  END
> <Name>
IA_81.cdx

> <SourceTag>
IA_81

> <Gold.Version>
5.2

> <Gold.Id.Protein>
6HGV|6HGV_protein|mol2

> <Gold.Goldscore.Fitness>
36.4073

> <Gold.Goldscore.Internal.Vdw>
-11.0705

> <Gold.Goldscore.Internal.Torsion>
-4.4138

> <Gold.Goldscore.External.Vdw>
27.9205

> <Gold.Goldscore.Internal.HBond>
0.0000

> <Gold.Goldscore.External.HBond>
6.3000

> <Gold.Goldscore.Internal.Correction>
-7.2009

> <Gold.Goldscore.Hbonds>
donor molecule, donor type, donor heavy atom, donor atom, acceptor molecule, acceptor atom, score
      P1  H  1247  3847       L1    14  0.04
      L1  H    12    37       P1   853  0.90
      L1  H    13    38       P1   853  0.13

> <Gold.Goldscore.Internal.Vdw.Weighted>
-11.0705

> <Gold.Goldscore.Internal.Torsion.Weighted>
-4.4138

> <Gold.Goldscore.External.Vdw.Weighted>
38.3907

> <Gold.Goldscore.Internal.HBond.Weighted>
0.0000

> <Gold.Goldscore.External.HBond.Weighted>
6.3000

> <Gold.Goldscore.Internal.Correction.Weighted>
-7.2009

> <Gold.Protein.RotatedTorsions>
[ 3781 1176 1175 1172 ] final  -97.49 input   60.00 | X-H torsion
[ 3847 1247 1246 1244 ] final  130.94 input   60.00 | X-H torsion
[ 4507 1931 1930 1928 ] final   85.60 input   60.00 | X-H torsion
[ 3677 1070 1069 1066 ] final -111.83 input   60.00 | X-H torsion
[ 3525  925  924  922 ] final -130.51 input   59.99 | X-H torsion
[ 4531 1957 1955 1953 ] final -171.41 input   60.00 | X-H torsion

> <Gold.Protein.ActiveResidues>
 PHE267  PRO268  MET310  ASP335  TRP336  MET339  TYR343  THR360  PRO361  ILE363 
 PRO371  SER374  ILE375  ASN378  PHE381  TYR383  GLN384  PHE387  LEU408  LEU417 
 MET419  LEU428  TYR466  MET469  ASN472  ASP496  VAL498  LEU499  MET503  HIS524 
 TRP525 

> <Gold.Protein.RotatedAtoms>
   -2.8652  -29.9991  -29.0093 H   0  0  0  0  0  0  0  0  0  0  0  0  # atno 3525 bound_to 925 
  -11.5687  -23.6602  -31.4451 H   0  0  0  0  0  0  0  0  0  0  0  0  # atno 3677 bound_to 1070
   -9.7233  -36.3941  -34.0025 H   0  0  0  0  0  0  0  0  0  0  0  0  # atno 3781 bound_to 1176
  -14.3126  -28.1229  -37.8309 H   0  0  0  0  0  0  0  0  0  0  0  0  # atno 3847 bound_to 1247
  -12.4782  -24.3145  -38.9558 H   0  0  0  0  0  0  0  0  0  0  0  0  # atno 4507 bound_to 1931
   -1.4160  -33.6515  -36.9829 H   0  0  0  0  0  0  0  0  0  0  0  0  # atno 4531 bound_to 1957
   -9.5584  -36.8616  -32.4526 LP  0  0  0  0  0  0  0  0  0  0  0  0  # atno 5205 bound_to 1176
  -10.8313  -37.3807  -33.3340 LP  0  0  0  0  0  0  0  0  0  0  0  0  # atno 5206 bound_to 1176
  -15.5664  -28.8252  -37.0675 LP  0  0  0  0  0  0  0  0  0  0  0  0  # atno 5215 bound_to 1247
  -15.6916  -27.2887  -37.6061 LP  0  0  0  0  0  0  0  0  0  0  0  0  # atno 5216 bound_to 1247
  -13.5686  -25.3697  -39.5438 LP  0  0  0  0  0  0  0  0  0  0  0  0  # atno 5217 bound_to 1931
  -13.1521  -24.0518  -40.4135 LP  0  0  0  0  0  0  0  0  0  0  0  0  # atno 5218 bound_to 1931
  -11.4712  -22.2273  -30.6800 LP  0  0  0  0  0  0  0  0  0  0  0  0  # atno 5224 bound_to 1070
  -12.8169  -23.1415  -30.5390 LP  0  0  0  0  0  0  0  0  0  0  0  0  # atno 5225 bound_to 1070

$$$$
IA_128.cdx|SeH_inactivess_minimized|sdf|29|dock1
  -GOLD-   4172119 93D 1   1.00000     0.00000

 38 38  0  0  0  0  0  0  0  0  1 V2000
   -8.6329  -32.6222  -36.0514 C   0  0  0  0  0  0  0  0  0  0  0  0
   -8.1324  -31.8113  -33.8312 C   0  0  0  0  0  0  0  0  0  0  0  0
   -7.2979  -32.9905  -36.2177 C   0  0  0  0  0  0  0  0  0  0  0  0
   -6.7974  -32.1795  -33.9976 C   0  0  0  0  0  0  0  0  0  0  0  0
   -9.0502  -32.0326  -34.8581 C   0  0  0  0  0  0  0  0  0  0  0  0
   -6.3801  -32.7692  -35.1909 C   0  0  0  0  0  0  0  0  0  0  0  0
  -10.7708  -30.2995  -34.5140 C   0  0  0  0  0  0  0  0  0  0  0  0
  -11.4749  -32.6714  -34.6902 C   0  0  0  0  0  0  0  0  0  0  0  0
   -8.7483  -29.6702  -35.8856 C   0  0  0  0  0  0  0  0  0  0  0  0
  -10.6375  -25.2510  -33.8364 C   0  0  0  0  0  0  0  0  0  0  0  0
  -12.9310  -26.5390  -35.9596 C   0  0  0  0  0  0  0  0  0  0  0  0
   -9.8459  -27.9795  -34.4597 C   0  0  0  0  0  0  0  0  0  0  0  0
  -10.6926  -27.0731  -35.3546 C   0  0  0  0  0  0  0  0  0  0  0  0
  -10.4142  -31.6567  -34.6880 N   0  0  0  0  0  0  0  0  0  0  0  0
   -9.8189  -29.3380  -34.9365 N   0  0  0  0  0  0  0  0  0  0  0  0
  -11.8403  -29.9584  -33.9941 O   0  0  0  0  0  0  0  0  0  0  0  0
  -10.2698  -25.7213  -35.1263 O   0  0  0  0  0  0  0  0  0  0  0  0
  -12.0829  -27.2479  -35.0666 O   0  0  0  0  0  0  0  0  0  0  0  0
   -4.7327  -33.2238  -35.3964 Cl  0  0  0  0  0  0  0  0  0  0  0  0
   -9.3395  -32.7990  -36.8581 H   0  0  0  0  0  0  0  0  0  0  0  0
   -8.4468  -31.3525  -32.8973 H   0  0  0  0  0  0  0  0  0  0  0  0
   -6.9866  -33.4492  -37.1527 H   0  0  0  0  0  0  0  0  0  0  0  0
   -6.0931  -32.0012  -33.1893 H   0  0  0  0  0  0  0  0  0  0  0  0
  -12.0527  -32.6088  -35.6160 H   0  0  0  0  0  0  0  0  0  0  0  0
  -12.1489  -32.5153  -33.8435 H   0  0  0  0  0  0  0  0  0  0  0  0
  -11.0411  -33.6720  -34.6130 H   0  0  0  0  0  0  0  0  0  0  0  0
   -9.1062  -30.4017  -36.6148 H   0  0  0  0  0  0  0  0  0  0  0  0
   -7.8906  -30.0926  -35.3554 H   0  0  0  0  0  0  0  0  0  0  0  0
   -8.4235  -28.7724  -36.4184 H   0  0  0  0  0  0  0  0  0  0  0  0
  -10.3499  -24.2018  -33.7346 H   0  0  0  0  0  0  0  0  0  0  0  0
  -10.1385  -25.8525  -33.0725 H   0  0  0  0  0  0  0  0  0  0  0  0
  -11.7200  -25.3427  -33.7198 H   0  0  0  0  0  0  0  0  0  0  0  0
  -12.6538  -25.4820  -35.9649 H   0  0  0  0  0  0  0  0  0  0  0  0
  -13.9709  -26.6523  -35.6431 H   0  0  0  0  0  0  0  0  0  0  0  0
  -12.8115  -26.9498  -36.9649 H   0  0  0  0  0  0  0  0  0  0  0  0
   -8.8070  -27.6414  -34.4139 H   0  0  0  0  0  0  0  0  0  0  0  0
  -10.2538  -28.0098  -33.4444 H   0  0  0  0  0  0  0  0  0  0  0  0
  -10.4851  -27.3209  -36.4042 H   0  0  0  0  0  0  0  0  0  0  0  0
  1  3  1  0  0  0  0
  1  5  2  0  0  0  0
  2  4  2  0  0  0  0
  2  5  1  0  0  0  0
  3  6  2  0  0  0  0
  4  6  1  0  0  0  0
  5 14  1  0  0  0  0
  6 19  1  0  0  0  0
  7 14  1  0  0  0  0
  7 15  1  0  0  0  0
  7 16  2  0  0  0  0
  8 14  1  0  0  0  0
  9 15  1  0  0  0  0
 10 17  1  0  0  0  0
 11 18  1  0  0  0  0
 12 13  1  0  0  0  0
 12 15  1  0  0  0  0
 13 17  1  0  0  0  0
 13 18  1  0  0  0  0
  1 20  1  0  0  0  0
  2 21  1  0  0  0  0
  3 22  1  0  0  0  0
  4 23  1  0  0  0  0
  8 24  1  0  0  0  0
  8 25  1  0  0  0  0
  8 26  1  0  0  0  0
  9 27  1  0  0  0  0
  9 28  1  0  0  0  0
  9 29  1  0  0  0  0
 10 30  1  0  0  0  0
 10 31  1  0  0  0  0
 10 32  1  0  0  0  0
 11 33  1  0  0  0  0
 11 34  1  0  0  0  0
 11 35  1  0  0  0  0
 12 36  1  0  0  0  0
 12 37  1  0  0  0  0
 13 38  1  0  0  0  0
M  END
> <Name>
IA_128.cdx

> <SourceTag>
IA_128

> <Gold.Version>
5.2

> <Gold.Id.Protein>
6HGV|6HGV_protein|mol2

> <Gold.Goldscore.Fitness>
50.5232

> <Gold.Goldscore.Internal.Vdw>
-11.7286

> <Gold.Goldscore.Internal.Torsion>
-13.7805

> <Gold.Goldscore.External.Vdw>
36.9684

> <Gold.Goldscore.Internal.HBond>
0.0000

> <Gold.Goldscore.External.HBond>
0.0000

> <Gold.Goldscore.Internal.Correction>
-25.2008

> <Gold.Goldscore.Internal.Vdw.Weighted>
-11.7286

> <Gold.Goldscore.Internal.Torsion.Weighted>
-13.7805

> <Gold.Goldscore.External.Vdw.Weighted>
50.8316

> <Gold.Goldscore.Internal.HBond.Weighted>
0.0000

> <Gold.Goldscore.External.HBond.Weighted>
0.0000

> <Gold.Goldscore.Internal.Correction.Weighted>
-25.2008

> <Gold.Protein.RotatedTorsions>
[ 3781 1176 1175 1172 ] final -115.22 input   60.00 | X-H torsion
[ 3847 1247 1246 1244 ] final -118.43 input   60.00 | X-H torsion
[ 4507 1931 1930 1928 ] final   20.97 input   60.00 | X-H torsion
[ 3677 1070 1069 1066 ] final  -93.90 input   60.00 | X-H torsion
[ 3525  925  924  922 ] final   35.43 input   59.99 | X-H torsion
[ 4531 1957 1955 1953 ] final  -56.79 input   60.00 | X-H torsion

> <Gold.Protein.ActiveResidues>
 PHE267  PRO268  MET310  ASP335  TRP336  MET339  TYR343  THR360  PRO361  ILE363 
 PRO371  SER374  ILE375  ASN378  PHE381  TYR383  GLN384  PHE387  LEU408  LEU417 
 MET419  LEU428  TYR466  MET469  ASN472  ASP496  VAL498  LEU499  MET503  HIS524 
 TRP525 

> <Gold.Protein.RotatedAtoms>
   -3.1691  -29.7011  -30.8182 H   0  0  0  0  0  0  0  0  0  0  0  0  # atno 3525 bound_to 925 
  -11.8249  -23.7901  -31.3932 H   0  0  0  0  0  0  0  0  0  0  0  0  # atno 3677 bound_to 1070
   -9.5159  -36.3265  -33.8136 H   0  0  0  0  0  0  0  0  0  0  0  0  # atno 3781 bound_to 1176
  -15.5645  -27.2399  -37.6774 H   0  0  0  0  0  0  0  0  0  0  0  0  # atno 3847 bound_to 1247
  -13.0286  -25.1483  -38.8945 H   0  0  0  0  0  0  0  0  0  0  0  0  # atno 4507 bound_to 1931
   -2.0300  -32.2071  -36.8412 H   0  0  0  0  0  0  0  0  0  0  0  0  # atno 4531 bound_to 1957
   -9.7761  -37.0368  -32.3728 LP  0  0  0  0  0  0  0  0  0  0  0  0  # atno 5205 bound_to 1176
  -10.8224  -37.2737  -33.6040 LP  0  0  0  0  0  0  0  0  0  0  0  0  # atno 5206 bound_to 1176
  -14.3056  -28.2663  -37.7761 LP  0  0  0  0  0  0  0  0  0  0  0  0  # atno 5215 bound_to 1247
  -15.6916  -28.7369  -37.0521 LP  0  0  0  0  0  0  0  0  0  0  0  0  # atno 5216 bound_to 1247
  -13.6339  -24.7816  -40.3598 LP  0  0  0  0  0  0  0  0  0  0  0  0  # atno 5217 bound_to 1931
  -12.5326  -23.8002  -39.6592 LP  0  0  0  0  0  0  0  0  0  0  0  0  # atno 5218 bound_to 1931
  -11.2723  -22.3582  -30.8523 LP  0  0  0  0  0  0  0  0  0  0  0  0  # atno 5224 bound_to 1070
  -12.7578  -22.8797  -30.4190 LP  0  0  0  0  0  0  0  0  0  0  0  0  # atno 5225 bound_to 1070

$$$$
IA_45|SeH_inactivess_minimized|sdf|130|dock9
  -GOLD-   4172121453D 1   1.00000     0.00000

 66 68  0  0  0  0  0  0  0  0  1 V2000
  -14.6468  -25.1772  -36.9393 C   0  0  0  0  0  0  0  0  0  0  0  0
  -16.5082  -25.1290  -40.1606 C   0  0  0  0  0  0  0  0  0  0  0  0
   -8.2487  -29.3505  -34.4186 C   0  0  0  0  0  0  0  0  0  0  0  0
   -4.1048  -31.6722  -35.0697 C   0  0  0  0  0  0  0  0  0  0  0  0
   -5.0723  -33.4902  -33.6386 C   0  0  0  0  0  0  0  0  0  0  0  0
   -3.8018  -31.6044  -32.5810 C   0  0  0  0  0  0  0  0  0  0  0  0
   -6.5880  -31.8398  -34.7639 C   0  0  0  0  0  0  0  0  0  0  0  0
   -5.3160  -29.9521  -33.7054 C   0  0  0  0  0  0  0  0  0  0  0  0
   -6.2848  -31.7726  -32.2715 C   0  0  0  0  0  0  0  0  0  0  0  0
   -5.2848  -32.6449  -34.9060 C   0  0  0  0  0  0  0  0  0  0  0  0
   -4.0077  -30.7495  -33.8431 C   0  0  0  0  0  0  0  0  0  0  0  0
   -4.9802  -32.5771  -32.4042 C   0  0  0  0  0  0  0  0  0  0  0  0
   -6.5149  -30.9108  -33.5318 C   0  0  0  0  0  0  0  0  0  0  0  0
  -18.5687  -23.5026  -38.7164 C   0  0  0  0  0  0  0  0  0  0  0  0
  -16.3698  -22.3006  -38.5337 C   0  0  0  0  0  0  0  0  0  0  0  0
  -13.1386  -25.1100  -36.7679 C   0  0  0  0  0  0  0  0  0  0  0  0
  -12.6326  -25.7821  -35.4919 C   0  0  0  0  0  0  0  0  0  0  0  0
  -11.1575  -25.5181  -35.1642 C   0  0  0  0  0  0  0  0  0  0  0  0
  -10.5545  -26.5428  -34.1974 C   0  0  0  0  0  0  0  0  0  0  0  0
  -10.1784  -27.8486  -34.8921 C   0  0  0  0  0  0  0  0  0  0  0  0
  -16.4108  -24.8649  -38.6606 C   0  0  2  0  0  0  0  0  0  0  0  0
  -17.1330  -23.5838  -38.1908 C   0  0  0  0  0  0  0  0  0  0  0  0
  -15.0323  -24.8464  -38.2302 N   0  0  0  0  0  0  0  0  0  0  0  0
   -7.7406  -30.1535  -33.4025 N   0  0  0  0  0  0  0  0  0  0  0  0
   -9.4368  -28.7373  -34.0289 N   0  0  0  0  0  0  0  0  0  0  0  0
  -15.4118  -25.5143  -36.0395 O   0  0  0  0  0  0  0  0  0  0  0  0
  -17.0471  -26.1198  -40.6408 O   0  0  0  0  0  0  0  0  0  0  0  0
   -7.7197  -29.2002  -35.5192 O   0  0  0  0  0  0  0  0  0  0  0  0
  -15.8997  -24.1992  -40.9371 O   0  0  0  0  0  0  0  0  0  0  0  0
   -3.1708  -32.2344  -35.1907 H   0  0  0  0  0  0  0  0  0  0  0  0
   -4.2362  -31.0735  -35.9793 H   0  0  0  0  0  0  0  0  0  0  0  0
   -5.9001  -34.2000  -33.5183 H   0  0  0  0  0  0  0  0  0  0  0  0
   -4.1549  -34.0840  -33.7344 H   0  0  0  0  0  0  0  0  0  0  0  0
   -2.8623  -32.1651  -32.6574 H   0  0  0  0  0  0  0  0  0  0  0  0
   -3.7153  -30.9566  -31.7000 H   0  0  0  0  0  0  0  0  0  0  0  0
   -6.7624  -31.2516  -35.6745 H   0  0  0  0  0  0  0  0  0  0  0  0
   -7.4412  -32.5249  -34.6726 H   0  0  0  0  0  0  0  0  0  0  0  0
   -5.2481  -29.2702  -32.8474 H   0  0  0  0  0  0  0  0  0  0  0  0
   -5.4615  -29.3185  -34.5903 H   0  0  0  0  0  0  0  0  0  0  0  0
   -7.1303  -32.4561  -32.1191 H   0  0  0  0  0  0  0  0  0  0  0  0
   -6.2392  -31.1361  -31.3779 H   0  0  0  0  0  0  0  0  0  0  0  0
   -5.3486  -33.3005  -35.7817 H   0  0  0  0  0  0  0  0  0  0  0  0
   -3.1650  -30.0599  -33.9644 H   0  0  0  0  0  0  0  0  0  0  0  0
   -4.8269  -33.1845  -31.5052 H   0  0  0  0  0  0  0  0  0  0  0  0
  -19.0862  -22.6410  -38.2803 H   0  0  0  0  0  0  0  0  0  0  0  0
  -19.1352  -24.3998  -38.4456 H   0  0  0  0  0  0  0  0  0  0  0  0
  -18.6040  -23.3889  -39.8035 H   0  0  0  0  0  0  0  0  0  0  0  0
  -16.3028  -22.1446  -39.6152 H   0  0  0  0  0  0  0  0  0  0  0  0
  -16.8764  -21.4286  -38.1053 H   0  0  0  0  0  0  0  0  0  0  0  0
  -15.3536  -22.3221  -38.1281 H   0  0  0  0  0  0  0  0  0  0  0  0
  -12.7002  -25.6244  -37.6324 H   0  0  0  0  0  0  0  0  0  0  0  0
  -12.8074  -24.0676  -36.8168 H   0  0  0  0  0  0  0  0  0  0  0  0
  -13.2413  -25.4536  -34.6403 H   0  0  0  0  0  0  0  0  0  0  0  0
  -12.7859  -26.8646  -35.5828 H   0  0  0  0  0  0  0  0  0  0  0  0
  -11.0862  -24.5197  -34.7145 H   0  0  0  0  0  0  0  0  0  0  0  0
  -10.5696  -25.4851  -36.0880 H   0  0  0  0  0  0  0  0  0  0  0  0
   -9.6527  -26.1193  -33.7396 H   0  0  0  0  0  0  0  0  0  0  0  0
  -11.2617  -26.7574  -33.3883 H   0  0  0  0  0  0  0  0  0  0  0  0
  -11.0669  -28.3837  -35.2415 H   0  0  0  0  0  0  0  0  0  0  0  0
   -9.5433  -27.6413  -35.7592 H   0  0  0  0  0  0  0  0  0  0  0  0
  -16.8474  -25.7416  -38.1671 H   0  0  0  0  0  0  0  0  0  0  0  0
  -17.2069  -23.6293  -37.0950 H   0  0  0  0  0  0  0  0  0  0  0  0
  -14.3307  -24.5433  -38.8993 H   0  0  0  0  0  0  0  0  0  0  0  0
   -8.2540  -30.2107  -32.5296 H   0  0  0  0  0  0  0  0  0  0  0  0
   -9.8236  -28.9567  -33.1163 H   0  0  0  0  0  0  0  0  0  0  0  0
  -15.9573  -24.3622  -41.9017 H   0  0  0  0  0  0  0  0  0  0  0  0
  1 16  1  0  0  0  0
  1 23  1  0  0  0  0
  1 26  2  0  0  0  0
  2 21  1  0  0  0  0
  2 27  2  0  0  0  0
  2 29  1  0  0  0  0
  3 24  1  0  0  0  0
  3 25  1  0  0  0  0
  3 28  2  0  0  0  0
  4 10  1  0  0  0  0
  4 11  1  0  0  0  0
  5 10  1  0  0  0  0
  5 12  1  0  0  0  0
  6 11  1  0  0  0  0
  6 12  1  0  0  0  0
  7 10  1  0  0  0  0
  7 13  1  0  0  0  0
  8 11  1  0  0  0  0
  8 13  1  0  0  0  0
  9 12  1  0  0  0  0
  9 13  1  0  0  0  0
 13 24  1  0  0  0  0
 14 22  1  0  0  0  0
 15 22  1  0  0  0  0
 16 17  1  0  0  0  0
 17 18  1  0  0  0  0
 18 19  1  0  0  0  0
 19 20  1  0  0  0  0
 20 25  1  0  0  0  0
 21 22  1  0  0  0  0
 21 23  1  0  0  0  0
  4 30  1  0  0  0  0
  4 31  1  0  0  0  0
  5 32  1  0  0  0  0
  5 33  1  0  0  0  0
  6 34  1  0  0  0  0
  6 35  1  0  0  0  0
  7 36  1  0  0  0  0
  7 37  1  0  0  0  0
  8 38  1  0  0  0  0
  8 39  1  0  0  0  0
  9 40  1  0  0  0  0
  9 41  1  0  0  0  0
 10 42  1  0  0  0  0
 11 43  1  0  0  0  0
 12 44  1  0  0  0  0
 14 45  1  0  0  0  0
 14 46  1  0  0  0  0
 14 47  1  0  0  0  0
 15 48  1  0  0  0  0
 15 49  1  0  0  0  0
 15 50  1  0  0  0  0
 16 51  1  0  0  0  0
 16 52  1  0  0  0  0
 17 53  1  0  0  0  0
 17 54  1  0  0  0  0
 18 55  1  0  0  0  0
 18 56  1  0  0  0  0
 19 57  1  0  0  0  0
 19 58  1  0  0  0  0
 20 59  1  0  0  0  0
 20 60  1  0  0  0  0
 21 61  1  0  0  0  0
 22 62  1  0  0  0  0
 23 63  1  0  0  0  0
 24 64  1  0  0  0  0
 25 65  1  0  0  0  0
 29 66  1  0  0  0  0
M  END
> <Name>
IA_45

> <SourceTag>
IA_45

> <Gold.Version>
5.2

> <Gold.Id.Protein>
6HGV|6HGV_protein|mol2

> <Gold.Goldscore.Fitness>
74.5159

> <Gold.Goldscore.Internal.Vdw>
-3.9060

> <Gold.Goldscore.Internal.Torsion>
-4.8477

> <Gold.Goldscore.External.Vdw>
54.9772

> <Gold.Goldscore.Internal.HBond>
0.0000

> <Gold.Goldscore.External.HBond>
1.1250

> <Gold.Goldscore.Internal.Correction>
-6.5510

> <Gold.Goldscore.Hbonds>
donor molecule, donor type, donor heavy atom, donor atom, acceptor molecule, acceptor atom, score
      L1  H    23    63       P1  1931  0.56

> <Gold.Goldscore.Internal.Vdw.Weighted>
-3.9060

> <Gold.Goldscore.Internal.Torsion.Weighted>
-4.8477

> <Gold.Goldscore.External.Vdw.Weighted>
75.5937

> <Gold.Goldscore.Internal.HBond.Weighted>
0.0000

> <Gold.Goldscore.External.HBond.Weighted>
1.1250

> <Gold.Goldscore.Internal.Correction.Weighted>
-6.5510

> <Gold.Protein.RotatedTorsions>
[ 3781 1176 1175 1172 ] final -130.31 input   60.00 | X-H torsion
[ 3847 1247 1246 1244 ] final  147.11 input   60.00 | X-H torsion
[ 4507 1931 1930 1928 ] final  137.10 input   60.00 | X-H torsion
[ 3677 1070 1069 1066 ] final -108.08 input   60.00 | X-H torsion
[ 3525  925  924  922 ] final  -40.20 input   59.99 | X-H torsion
[ 4531 1957 1955 1953 ] final  125.33 input   60.00 | X-H torsion

> <Gold.Protein.ActiveResidues>
 PHE267  PRO268  MET310  ASP335  TRP336  MET339  TYR343  THR360  PRO361  ILE363 
 PRO371  SER374  ILE375  ASN378  PHE381  TYR383  GLN384  PHE387  LEU408  LEU417 
 MET419  LEU428  TYR466  MET469  ASN472  ASP496  VAL498  LEU499  MET503  HIS524 
 TRP525 

> <Gold.Protein.RotatedAtoms>
   -3.7714  -29.5266  -29.8565 H   0  0  0  0  0  0  0  0  0  0  0  0  # atno 3525 bound_to 925 
  -11.6200  -23.6931  -31.4386 H   0  0  0  0  0  0  0  0  0  0  0  0  # atno 3677 bound_to 1070
   -9.3777  -36.3102  -33.6110 H   0  0  0  0  0  0  0  0  0  0  0  0  # atno 3781 bound_to 1176
  -14.3673  -27.8758  -37.9040 H   0  0  0  0  0  0  0  0  0  0  0  0  # atno 3847 bound_to 1247
  -12.5124  -23.8230  -39.6031 H   0  0  0  0  0  0  0  0  0  0  0  0  # atno 4507 bound_to 1931
   -2.2944  -34.0605  -36.8229 H   0  0  0  0  0  0  0  0  0  0  0  0  # atno 4531 bound_to 1957
   -9.9818  -37.1744  -32.3716 LP  0  0  0  0  0  0  0  0  0  0  0  0  # atno 5205 bound_to 1176
  -10.7559  -37.1524  -33.8093 LP  0  0  0  0  0  0  0  0  0  0  0  0  # atno 5206 bound_to 1176
  -15.3285  -28.9297  -37.1209 LP  0  0  0  0  0  0  0  0  0  0  0  0  # atno 5215 bound_to 1247
  -15.8744  -27.4330  -37.4791 LP  0  0  0  0  0  0  0  0  0  0  0  0  # atno 5216 bound_to 1247
  -13.0731  -25.1880  -38.9172 LP  0  0  0  0  0  0  0  0  0  0  0  0  # atno 5217 bound_to 1931
  -13.6132  -24.7285  -40.3882 LP  0  0  0  0  0  0  0  0  0  0  0  0  # atno 5218 bound_to 1931
  -11.4249  -22.2487  -30.7149 LP  0  0  0  0  0  0  0  0  0  0  0  0  # atno 5224 bound_to 1070
  -12.8114  -23.0869  -30.5106 LP  0  0  0  0  0  0  0  0  0  0  0  0  # atno 5225 bound_to 1070

$$$$
IA_103.cdx|SeH_inactivess_minimized|sdf|5|dock1
  -GOLD-   4172118283D 1   1.00000     0.00000

 65 64  0  0  0  0  0  0  0  0  1 V2000
   -6.8403  -30.2156  -34.9346 C   0  0  0  0  0  0  0  0  0  0  0  0
  -24.5751  -24.0117  -34.7287 C   0  0  0  0  0  0  0  0  0  0  0  0
   -4.3837  -33.1459  -33.7919 C   0  0  0  0  0  0  0  0  0  0  0  0
  -24.0074  -24.3218  -36.1050 C   0  0  0  0  0  0  0  0  0  0  0  0
   -3.9448  -31.9268  -34.5905 C   0  0  0  0  0  0  0  0  0  0  0  0
  -22.5465  -23.8976  -36.2722 C   0  0  0  0  0  0  0  0  0  0  0  0
  -21.9075  -24.2372  -37.6231 C   0  0  0  0  0  0  0  0  0  0  0  0
  -20.4323  -23.8550  -37.7767 C   0  0  0  0  0  0  0  0  0  0  0  0
  -19.4791  -24.8018  -37.0431 C   0  0  0  0  0  0  0  0  0  0  0  0
  -18.0186  -24.4535  -37.3403 C   0  0  0  0  0  0  0  0  0  0  0  0
  -17.0165  -25.3981  -36.6692 C   0  0  0  0  0  0  0  0  0  0  0  0
  -15.5376  -25.1152  -36.9513 C   0  0  0  0  0  0  0  0  0  0  0  0
  -14.5826  -25.9141  -36.0622 C   0  0  0  0  0  0  0  0  0  0  0  0
  -13.1342  -25.7690  -36.5348 C   0  0  0  0  0  0  0  0  0  0  0  0
  -12.1656  -26.4783  -35.5855 C   0  0  0  0  0  0  0  0  0  0  0  0
  -10.7233  -26.3713  -36.0853 C   0  0  0  0  0  0  0  0  0  0  0  0
   -9.7045  -27.0425  -35.1588 C   0  0  0  0  0  0  0  0  0  0  0  0
   -9.6533  -28.5662  -35.3137 C   0  0  0  0  0  0  0  0  0  0  0  0
   -4.9081  -31.5851  -35.7208 C   0  0  0  0  0  0  0  0  0  0  0  0
   -8.9892  -29.2523  -34.1233 C   0  0  0  0  0  0  0  0  0  0  0  0
   -6.2698  -31.4434  -35.2594 N   0  0  0  0  0  0  0  0  0  0  0  0
   -8.1653  -30.3611  -34.5175 N   0  0  0  0  0  0  0  0  0  0  0  0
   -6.2552  -29.1356  -35.0052 O   0  0  0  0  0  0  0  0  0  0  0  0
  -23.9969  -24.5097  -33.9442 H   0  0  0  0  0  0  0  0  0  0  0  0
  -25.6097  -24.3629  -34.6615 H   0  0  0  0  0  0  0  0  0  0  0  0
  -24.5766  -22.9363  -34.5281 H   0  0  0  0  0  0  0  0  0  0  0  0
   -3.6343  -33.4126  -33.0398 H   0  0  0  0  0  0  0  0  0  0  0  0
   -5.3246  -32.9372  -33.2727 H   0  0  0  0  0  0  0  0  0  0  0  0
   -4.5440  -34.0120  -34.4414 H   0  0  0  0  0  0  0  0  0  0  0  0
  -24.6324  -23.8532  -36.8731 H   0  0  0  0  0  0  0  0  0  0  0  0
  -24.0729  -25.4038  -36.2723 H   0  0  0  0  0  0  0  0  0  0  0  0
   -2.9547  -32.1255  -35.0172 H   0  0  0  0  0  0  0  0  0  0  0  0
   -3.8403  -31.0709  -33.9132 H   0  0  0  0  0  0  0  0  0  0  0  0
  -21.9564  -24.3504  -35.4665 H   0  0  0  0  0  0  0  0  0  0  0  0
  -22.4739  -22.8129  -36.1219 H   0  0  0  0  0  0  0  0  0  0  0  0
  -22.4856  -23.7378  -38.4111 H   0  0  0  0  0  0  0  0  0  0  0  0
  -22.0104  -25.3125  -37.8122 H   0  0  0  0  0  0  0  0  0  0  0  0
  -20.1646  -23.8072  -38.8385 H   0  0  0  0  0  0  0  0  0  0  0  0
  -20.3027  -22.8396  -37.3815 H   0  0  0  0  0  0  0  0  0  0  0  0
  -19.6786  -25.8323  -37.3532 H   0  0  0  0  0  0  0  0  0  0  0  0
  -19.6595  -24.7424  -35.9633 H   0  0  0  0  0  0  0  0  0  0  0  0
  -17.8529  -24.4396  -38.4238 H   0  0  0  0  0  0  0  0  0  0  0  0
  -17.8130  -23.4353  -36.9862 H   0  0  0  0  0  0  0  0  0  0  0  0
  -17.2366  -26.4269  -36.9808 H   0  0  0  0  0  0  0  0  0  0  0  0
  -17.1827  -25.3636  -35.5852 H   0  0  0  0  0  0  0  0  0  0  0  0
  -15.3341  -24.0432  -36.8467 H   0  0  0  0  0  0  0  0  0  0  0  0
  -15.3405  -25.3625  -38.0020 H   0  0  0  0  0  0  0  0  0  0  0  0
  -14.6555  -25.5671  -35.0254 H   0  0  0  0  0  0  0  0  0  0  0  0
  -14.8686  -26.9727  -36.0733 H   0  0  0  0  0  0  0  0  0  0  0  0
  -12.8736  -24.7053  -36.5977 H   0  0  0  0  0  0  0  0  0  0  0  0
  -13.0332  -26.1875  -37.5435 H   0  0  0  0  0  0  0  0  0  0  0  0
  -12.4470  -27.5344  -35.4963 H   0  0  0  0  0  0  0  0  0  0  0  0
  -12.2523  -26.0327  -34.5883 H   0  0  0  0  0  0  0  0  0  0  0  0
  -10.6513  -26.8465  -37.0716 H   0  0  0  0  0  0  0  0  0  0  0  0
  -10.4558  -25.3167  -36.2233 H   0  0  0  0  0  0  0  0  0  0  0  0
   -9.9729  -26.7898  -34.1261 H   0  0  0  0  0  0  0  0  0  0  0  0
   -8.7091  -26.6186  -35.3387 H   0  0  0  0  0  0  0  0  0  0  0  0
   -9.0836  -28.8246  -36.2130 H   0  0  0  0  0  0  0  0  0  0  0  0
  -10.6692  -28.9573  -35.4477 H   0  0  0  0  0  0  0  0  0  0  0  0
   -4.6249  -30.6321  -36.1790 H   0  0  0  0  0  0  0  0  0  0  0  0
   -4.8963  -32.3543  -36.4994 H   0  0  0  0  0  0  0  0  0  0  0  0
   -8.3400  -28.5441  -33.5987 H   0  0  0  0  0  0  0  0  0  0  0  0
   -9.7339  -29.6230  -33.4119 H   0  0  0  0  0  0  0  0  0  0  0  0
   -6.8382  -32.2797  -35.1675 H   0  0  0  0  0  0  0  0  0  0  0  0
   -8.5760  -31.2931  -34.5372 H   0  0  0  0  0  0  0  0  0  0  0  0
  1 21  1  0  0  0  0
  1 22  1  0  0  0  0
  1 23  2  0  0  0  0
  2  4  1  0  0  0  0
  3  5  1  0  0  0  0
  4  6  1  0  0  0  0
  5 19  1  0  0  0  0
  6  7  1  0  0  0  0
  7  8  1  0  0  0  0
  8  9  1  0  0  0  0
  9 10  1  0  0  0  0
 10 11  1  0  0  0  0
 11 12  1  0  0  0  0
 12 13  1  0  0  0  0
 13 14  1  0  0  0  0
 14 15  1  0  0  0  0
 15 16  1  0  0  0  0
 16 17  1  0  0  0  0
 17 18  1  0  0  0  0
 18 20  1  0  0  0  0
 19 21  1  0  0  0  0
 20 22  1  0  0  0  0
  2 24  1  0  0  0  0
  2 25  1  0  0  0  0
  2 26  1  0  0  0  0
  3 27  1  0  0  0  0
  3 28  1  0  0  0  0
  3 29  1  0  0  0  0
  4 30  1  0  0  0  0
  4 31  1  0  0  0  0
  5 32  1  0  0  0  0
  5 33  1  0  0  0  0
  6 34  1  0  0  0  0
  6 35  1  0  0  0  0
  7 36  1  0  0  0  0
  7 37  1  0  0  0  0
  8 38  1  0  0  0  0
  8 39  1  0  0  0  0
  9 40  1  0  0  0  0
  9 41  1  0  0  0  0
 10 42  1  0  0  0  0
 10 43  1  0  0  0  0
 11 44  1  0  0  0  0
 11 45  1  0  0  0  0
 12 46  1  0  0  0  0
 12 47  1  0  0  0  0
 13 48  1  0  0  0  0
 13 49  1  0  0  0  0
 14 50  1  0  0  0  0
 14 51  1  0  0  0  0
 15 52  1  0  0  0  0
 15 53  1  0  0  0  0
 16 54  1  0  0  0  0
 16 55  1  0  0  0  0
 17 56  1  0  0  0  0
 17 57  1  0  0  0  0
 18 58  1  0  0  0  0
 18 59  1  0  0  0  0
 19 60  1  0  0  0  0
 19 61  1  0  0  0  0
 20 62  1  0  0  0  0
 20 63  1  0  0  0  0
 21 64  1  0  0  0  0
 22 65  1  0  0  0  0
M  END
> <Name>
IA_103.cdx

> <SourceTag>
IA_103

> <Gold.Version>
5.2

> <Gold.Id.Protein>
6HGV|6HGV_protein|mol2

> <Gold.Goldscore.Fitness>
68.2786

> <Gold.Goldscore.Internal.Vdw>
-6.9840

> <Gold.Goldscore.Internal.Torsion>
-5.8550

> <Gold.Goldscore.External.Vdw>
53.2781

> <Gold.Goldscore.Internal.HBond>
0.0000

> <Gold.Goldscore.External.HBond>
0.0000

> <Gold.Goldscore.Internal.Correction>
-7.8602

> <Gold.Goldscore.Internal.Vdw.Weighted>
-6.9840

> <Gold.Goldscore.Internal.Torsion.Weighted>
-5.8550

> <Gold.Goldscore.External.Vdw.Weighted>
73.2574

> <Gold.Goldscore.Internal.HBond.Weighted>
0.0000

> <Gold.Goldscore.External.HBond.Weighted>
0.0000

> <Gold.Goldscore.Internal.Correction.Weighted>
-7.8602

> <Gold.Protein.RotatedTorsions>
[ 3781 1176 1175 1172 ] final  135.02 input   60.00 | X-H torsion
[ 3847 1247 1246 1244 ] final  100.80 input   60.00 | X-H torsion
[ 4507 1931 1930 1928 ] final  102.82 input   60.00 | X-H torsion
[ 3677 1070 1069 1066 ] final  -97.48 input   60.00 | X-H torsion
[ 3525  925  924  922 ] final   61.41 input   59.99 | X-H torsion
[ 4531 1957 1955 1953 ] final   96.56 input   60.00 | X-H torsion

> <Gold.Protein.ActiveResidues>
 PHE267  PRO268  MET310  ASP335  TRP336  MET339  TYR343  THR360  PRO361  ILE363 
 PRO371  SER374  ILE375  ASN378  PHE381  TYR383  GLN384  PHE387  LEU408  LEU417 
 MET419  LEU428  TYR466  MET469  ASN472  ASP496  VAL498  LEU499  MET503  HIS524 
 TRP525 

> <Gold.Protein.RotatedAtoms>
   -2.7841  -29.8647  -30.8649 H   0  0  0  0  0  0  0  0  0  0  0  0  # atno 3525 bound_to 925 
  -11.7718  -23.7699  -31.4077 H   0  0  0  0  0  0  0  0  0  0  0  0  # atno 3677 bound_to 1070
   -9.6474  -36.9379  -32.4156 H   0  0  0  0  0  0  0  0  0  0  0  0  # atno 3781 bound_to 1176
  -14.3950  -28.5593  -37.6317 H   0  0  0  0  0  0  0  0  0  0  0  0  # atno 3847 bound_to 1247
  -12.4338  -24.1027  -39.1339 H   0  0  0  0  0  0  0  0  0  0  0  0  # atno 4507 bound_to 1931
   -2.7194  -33.8907  -36.7392 H   0  0  0  0  0  0  0  0  0  0  0  0  # atno 4531 bound_to 1957
  -10.8368  -37.3408  -33.4504 LP  0  0  0  0  0  0  0  0  0  0  0  0  # atno 5205 bound_to 1176
   -9.6292  -36.3539  -33.9343 LP  0  0  0  0  0  0  0  0  0  0  0  0  # atno 5206 bound_to 1176
  -15.9169  -28.4827  -37.0609 LP  0  0  0  0  0  0  0  0  0  0  0  0  # atno 5215 bound_to 1247
  -15.2581  -27.1918  -37.8133 LP  0  0  0  0  0  0  0  0  0  0  0  0  # atno 5216 bound_to 1247
  -13.4304  -25.3786  -39.2978 LP  0  0  0  0  0  0  0  0  0  0  0  0  # atno 5217 bound_to 1931
  -13.3350  -24.2563  -40.4801 LP  0  0  0  0  0  0  0  0  0  0  0  0  # atno 5218 bound_to 1931
  -11.3073  -22.3264  -30.8170 LP  0  0  0  0  0  0  0  0  0  0  0  0  # atno 5224 bound_to 1070
  -12.7762  -22.9319  -30.4397 LP  0  0  0  0  0  0  0  0  0  0  0  0  # atno 5225 bound_to 1070

$$$$
IA_162.cdx|SeH_inactivess_minimized|sdf|64|dock5
  -GOLD-   4172120 43D 1   1.00000     0.00000

 18 18  0  0  0  0  0  0  0  0  1 V2000
   -9.3427  -26.4426  -34.9997 C   0  0  0  0  0  0  0  0  0  0  0  0
  -10.1796  -27.1533  -35.8599 C   0  0  0  0  0  0  0  0  0  0  0  0
   -9.8610  -25.4111  -34.2167 C   0  0  0  0  0  0  0  0  0  0  0  0
  -11.5350  -26.8326  -35.9372 C   0  0  0  0  0  0  0  0  0  0  0  0
  -11.2163  -25.0903  -34.2940 C   0  0  0  0  0  0  0  0  0  0  0  0
  -12.0533  -25.8010  -35.1542 C   0  0  0  0  0  0  0  0  0  0  0  0
  -14.5402  -26.2711  -35.3387 C   0  0  0  0  0  0  0  0  0  0  0  0
  -15.7646  -25.6784  -35.3963 N   0  0  0  0  0  0  0  0  0  0  0  0
  -13.4090  -25.4805  -35.2315 N   0  0  0  0  0  0  0  0  0  0  0  0
  -14.4187  -27.9443  -35.3280 S   0  0  0  0  0  0  0  0  0  0  0  0
   -8.2874  -26.6925  -34.9386 H   0  0  0  0  0  0  0  0  0  0  0  0
   -9.7766  -27.9570  -36.4690 H   0  0  0  0  0  0  0  0  0  0  0  0
   -9.2092  -24.8584  -33.5463 H   0  0  0  0  0  0  0  0  0  0  0  0
  -12.1777  -27.3935  -36.6110 H   0  0  0  0  0  0  0  0  0  0  0  0
  -11.6091  -24.2844  -33.6789 H   0  0  0  0  0  0  0  0  0  0  0  0
  -16.6099  -26.2365  -35.3344 H   0  0  0  0  0  0  0  0  0  0  0  0
  -15.8979  -24.6751  -35.3647 H   0  0  0  0  0  0  0  0  0  0  0  0
  -13.6278  -24.4784  -35.1867 H   0  0  0  0  0  0  0  0  0  0  0  0
  1  2  2  0  0  0  0
  1  3  1  0  0  0  0
  2  4  1  0  0  0  0
  3  5  2  0  0  0  0
  4  6  2  0  0  0  0
  5  6  1  0  0  0  0
  6  9  1  0  0  0  0
  7  8  1  0  0  0  0
  7  9  1  0  0  0  0
  7 10  2  0  0  0  0
  1 11  1  0  0  0  0
  2 12  1  0  0  0  0
  3 13  1  0  0  0  0
  4 14  1  0  0  0  0
  5 15  1  0  0  0  0
  8 16  1  0  0  0  0
  8 17  1  0  0  0  0
  9 18  1  0  0  0  0
M  END
> <Name>
IA_162.cdx

> <SourceTag>
IA_162

> <Gold.Version>
5.2

> <Gold.Id.Protein>
6HGV|6HGV_protein|mol2

> <Gold.Goldscore.Fitness>
42.3503

> <Gold.Goldscore.Internal.Vdw>
-0.3853

> <Gold.Goldscore.Internal.Torsion>
-2.5602

> <Gold.Goldscore.External.Vdw>
28.5316

> <Gold.Goldscore.Internal.HBond>
0.0000

> <Gold.Goldscore.External.HBond>
3.2451

> <Gold.Goldscore.Internal.Correction>
-2.8197

> <Gold.Goldscore.Hbonds>
donor molecule, donor type, donor heavy atom, donor atom, acceptor molecule, acceptor atom, score
      L1  H     9    18       P1   853  0.54

> <Gold.Goldscore.Internal.Vdw.Weighted>
-0.3853

> <Gold.Goldscore.Internal.Torsion.Weighted>
-2.5602

> <Gold.Goldscore.External.Vdw.Weighted>
39.2310

> <Gold.Goldscore.Internal.HBond.Weighted>
0.0000

> <Gold.Goldscore.External.HBond.Weighted>
3.2451

> <Gold.Goldscore.Internal.Correction.Weighted>
-2.8197

> <Gold.Protein.RotatedTorsions>
[ 3781 1176 1175 1172 ] final -132.90 input   60.00 | X-H torsion
[ 3847 1247 1246 1244 ] final  178.82 input   60.00 | X-H torsion
[ 4507 1931 1930 1928 ] final   30.28 input   60.00 | X-H torsion
[ 3677 1070 1069 1066 ] final  -90.72 input   60.00 | X-H torsion
[ 3525  925  924  922 ] final  171.13 input   59.99 | X-H torsion
[ 4531 1957 1955 1953 ] final -126.96 input   60.00 | X-H torsion

> <Gold.Protein.ActiveResidues>
 PHE267  PRO268  MET310  ASP335  TRP336  MET339  TYR343  THR360  PRO361  ILE363 
 PRO371  SER374  ILE375  ASN378  PHE381  TYR383  GLN384  PHE387  LEU408  LEU417 
 MET419  LEU428  TYR466  MET469  ASN472  ASP496  VAL498  LEU499  MET503  HIS524 
 TRP525 

> <Gold.Protein.RotatedAtoms>
   -2.1583  -30.2602  -29.5246 H   0  0  0  0  0  0  0  0  0  0  0  0  # atno 3525 bound_to 925 
  -11.8723  -23.8055  -31.3786 H   0  0  0  0  0  0  0  0  0  0  0  0  # atno 3677 bound_to 1070
   -9.3583  -36.3114  -33.5734 H   0  0  0  0  0  0  0  0  0  0  0  0  # atno 3781 bound_to 1176
  -14.6544  -27.4552  -37.9522 H   0  0  0  0  0  0  0  0  0  0  0  0  # atno 3847 bound_to 1247
  -12.9269  -25.0498  -38.8393 H   0  0  0  0  0  0  0  0  0  0  0  0  # atno 4507 bound_to 1931
   -1.2747  -32.9576  -36.9977 H   0  0  0  0  0  0  0  0  0  0  0  0  # atno 4531 bound_to 1957
  -10.0179  -37.1963  -32.3776 LP  0  0  0  0  0  0  0  0  0  0  0  0  # atno 5205 bound_to 1176
  -10.7393  -37.1294  -33.8411 LP  0  0  0  0  0  0  0  0  0  0  0  0  # atno 5206 bound_to 1176
  -14.8481  -28.9364  -37.3069 LP  0  0  0  0  0  0  0  0  0  0  0  0  # atno 5215 bound_to 1247
  -16.0656  -27.8500  -37.2446 LP  0  0  0  0  0  0  0  0  0  0  0  0  # atno 5216 bound_to 1247
  -13.6728  -24.9050  -40.2783 LP  0  0  0  0  0  0  0  0  0  0  0  0  # atno 5217 bound_to 1931
  -12.5960  -23.7760  -39.7963 LP  0  0  0  0  0  0  0  0  0  0  0  0  # atno 5218 bound_to 1931
  -11.2434  -22.3885  -30.8838 LP  0  0  0  0  0  0  0  0  0  0  0  0  # atno 5224 bound_to 1070
  -12.7389  -22.8339  -30.4022 LP  0  0  0  0  0  0  0  0  0  0  0  0  # atno 5225 bound_to 1070

$$$$
IA_14|SeH_inactivess_minimized|sdf|42|dock5
  -GOLD-   4172119323D 1   1.00000     0.00000

 61 63  0  0  0  0  0  0  0  0  1 V2000
  -14.5656  -25.4202  -36.8063 C   0  0  0  0  0  0  0  0  0  0  0  0
  -16.8356  -25.3710  -38.7073 C   0  0  0  0  0  0  0  0  0  0  0  0
   -7.8425  -28.9117  -34.6250 C   0  0  0  0  0  0  0  0  0  0  0  0
   -3.5102  -31.9487  -34.8354 C   0  0  0  0  0  0  0  0  0  0  0  0
   -5.6048  -33.1237  -34.1134 C   0  0  0  0  0  0  0  0  0  0  0  0
   -4.1485  -31.9976  -32.4105 C   0  0  0  0  0  0  0  0  0  0  0  0
   -5.7516  -30.9806  -35.4070 C   0  0  0  0  0  0  0  0  0  0  0  0
   -4.2936  -29.8534  -33.7023 C   0  0  0  0  0  0  0  0  0  0  0  0
   -6.3913  -31.0302  -32.9786 C   0  0  0  0  0  0  0  0  0  0  0  0
   -4.9578  -32.2865  -35.2299 C   0  0  0  0  0  0  0  0  0  0  0  0
   -3.4939  -31.1547  -33.5183 C   0  0  0  0  0  0  0  0  0  0  0  0
   -5.5996  -32.3360  -32.7922 C   0  0  0  0  0  0  0  0  0  0  0  0
   -5.7546  -30.1702  -34.0917 C   0  0  0  0  0  0  0  0  0  0  0  0
  -13.9853  -25.8822  -35.4801 C   0  0  0  0  0  0  0  0  0  0  0  0
  -12.4576  -25.9100  -35.4521 C   0  0  0  0  0  0  0  0  0  0  0  0
  -11.8444  -26.3729  -34.1243 C   0  0  0  0  0  0  0  0  0  0  0  0
  -10.3138  -26.3013  -34.1013 C   0  0  0  0  0  0  0  0  0  0  0  0
   -9.6698  -27.2811  -35.0783 C   0  0  0  0  0  0  0  0  0  0  0  0
  -15.7662  -23.1322  -38.4420 C   0  0  0  0  0  0  0  0  0  0  0  0
  -16.5407  -24.2403  -37.7439 C   0  0  2  0  0  0  0  0  0  0  0  0
  -15.7946  -24.7986  -36.6404 N   0  0  0  0  0  0  0  0  0  0  0  0
   -6.4996  -28.9420  -34.2623 N   0  0  0  0  0  0  0  0  0  0  0  0
   -8.3091  -27.6029  -34.7181 N   0  0  0  0  0  0  0  0  0  0  0  0
  -13.9870  -25.5633  -37.8801 O   0  0  0  0  0  0  0  0  0  0  0  0
  -16.6067  -25.3501  -39.9098 O   0  0  0  0  0  0  0  0  0  0  0  0
   -8.5305  -29.9096  -34.8358 O   0  0  0  0  0  0  0  0  0  0  0  0
  -17.4406  -26.4191  -38.0896 O   0  0  0  0  0  0  0  0  0  0  0  0
  -16.5499  -22.6160  -39.5108 O   0  0  0  0  0  0  0  0  0  0  0  0
   -2.9278  -32.8714  -34.7239 H   0  0  0  0  0  0  0  0  0  0  0  0
   -3.0316  -31.3643  -35.6309 H   0  0  0  0  0  0  0  0  0  0  0  0
   -6.6337  -33.3850  -34.3894 H   0  0  0  0  0  0  0  0  0  0  0  0
   -5.0588  -34.0670  -33.9890 H   0  0  0  0  0  0  0  0  0  0  0  0
   -3.5773  -32.9211  -32.2556 H   0  0  0  0  0  0  0  0  0  0  0  0
   -4.1291  -31.4482  -31.4612 H   0  0  0  0  0  0  0  0  0  0  0  0
   -5.3129  -30.3863  -36.2194 H   0  0  0  0  0  0  0  0  0  0  0  0
   -6.7806  -31.2090  -35.7145 H   0  0  0  0  0  0  0  0  0  0  0  0
   -4.2669  -29.2655  -32.7754 H   0  0  0  0  0  0  0  0  0  0  0  0
   -3.8212  -29.2315  -34.4741 H   0  0  0  0  0  0  0  0  0  0  0  0
   -7.4358  -31.2599  -33.2265 H   0  0  0  0  0  0  0  0  0  0  0  0
   -6.4155  -30.4724  -32.0331 H   0  0  0  0  0  0  0  0  0  0  0  0
   -4.9634  -32.8529  -36.1678 H   0  0  0  0  0  0  0  0  0  0  0  0
   -2.4605  -30.9180  -33.2415 H   0  0  0  0  0  0  0  0  0  0  0  0
   -6.0597  -32.9379  -32.0007 H   0  0  0  0  0  0  0  0  0  0  0  0
  -14.3369  -25.1744  -34.7190 H   0  0  0  0  0  0  0  0  0  0  0  0
  -14.3977  -26.8619  -35.2177 H   0  0  0  0  0  0  0  0  0  0  0  0
  -12.0896  -26.5656  -36.2511 H   0  0  0  0  0  0  0  0  0  0  0  0
  -12.0853  -24.9038  -35.6810 H   0  0  0  0  0  0  0  0  0  0  0  0
  -12.1545  -27.4116  -33.9543 H   0  0  0  0  0  0  0  0  0  0  0  0
  -12.2582  -25.7861  -33.2969 H   0  0  0  0  0  0  0  0  0  0  0  0
   -9.9964  -25.2858  -34.3660 H   0  0  0  0  0  0  0  0  0  0  0  0
   -9.9432  -26.5065  -33.0906 H   0  0  0  0  0  0  0  0  0  0  0  0
  -10.2335  -28.2178  -35.1322 H   0  0  0  0  0  0  0  0  0  0  0  0
   -9.6403  -26.8437  -36.0814 H   0  0  0  0  0  0  0  0  0  0  0  0
  -14.8309  -23.5134  -38.8656 H   0  0  0  0  0  0  0  0  0  0  0  0
  -15.5263  -22.3131  -37.7549 H   0  0  0  0  0  0  0  0  0  0  0  0
  -17.4732  -23.8697  -37.3048 H   0  0  0  0  0  0  0  0  0  0  0  0
  -16.2142  -24.7590  -35.7161 H   0  0  0  0  0  0  0  0  0  0  0  0
   -6.0203  -28.0611  -34.1104 H   0  0  0  0  0  0  0  0  0  0  0  0
   -7.6806  -26.8418  -34.4807 H   0  0  0  0  0  0  0  0  0  0  0  0
  -17.6825  -27.1672  -38.6763 H   0  0  0  0  0  0  0  0  0  0  0  0
  -17.3491  -22.2356  -39.1124 H   0  0  0  0  0  0  0  0  0  0  0  0
  1 14  1  0  0  0  0
  1 21  1  0  0  0  0
  1 24  2  0  0  0  0
  2 20  1  0  0  0  0
  2 25  2  0  0  0  0
  2 27  1  0  0  0  0
  3 22  1  0  0  0  0
  3 23  1  0  0  0  0
  3 26  2  0  0  0  0
  4 10  1  0  0  0  0
  4 11  1  0  0  0  0
  5 10  1  0  0  0  0
  5 12  1  0  0  0  0
  6 11  1  0  0  0  0
  6 12  1  0  0  0  0
  7 10  1  0  0  0  0
  7 13  1  0  0  0  0
  8 11  1  0  0  0  0
  8 13  1  0  0  0  0
  9 12  1  0  0  0  0
  9 13  1  0  0  0  0
 13 22  1  0  0  0  0
 14 15  1  0  0  0  0
 15 16  1  0  0  0  0
 16 17  1  0  0  0  0
 17 18  1  0  0  0  0
 18 23  1  0  0  0  0
 19 20  1  0  0  0  0
 19 28  1  0  0  0  0
 20 21  1  0  0  0  0
  4 29  1  0  0  0  0
  4 30  1  0  0  0  0
  5 31  1  0  0  0  0
  5 32  1  0  0  0  0
  6 33  1  0  0  0  0
  6 34  1  0  0  0  0
  7 35  1  0  0  0  0
  7 36  1  0  0  0  0
  8 37  1  0  0  0  0
  8 38  1  0  0  0  0
  9 39  1  0  0  0  0
  9 40  1  0  0  0  0
 10 41  1  0  0  0  0
 11 42  1  0  0  0  0
 12 43  1  0  0  0  0
 14 44  1  0  0  0  0
 14 45  1  0  0  0  0
 15 46  1  0  0  0  0
 15 47  1  0  0  0  0
 16 48  1  0  0  0  0
 16 49  1  0  0  0  0
 17 50  1  0  0  0  0
 17 51  1  0  0  0  0
 18 52  1  0  0  0  0
 18 53  1  0  0  0  0
 19 54  1  0  0  0  0
 19 55  1  0  0  0  0
 20 56  1  0  0  0  0
 21 57  1  0  0  0  0
 22 58  1  0  0  0  0
 23 59  1  0  0  0  0
 27 60  1  0  0  0  0
 28 61  1  0  0  0  0
M  END
> <Name>
IA_14

> <SourceTag>
IA_14

> <Gold.Version>
5.2

> <Gold.Id.Protein>
6HGV|6HGV_protein|mol2

> <Gold.Goldscore.Fitness>
71.4535

> <Gold.Goldscore.Internal.Vdw>
-5.6758

> <Gold.Goldscore.Internal.Torsion>
-4.3459

> <Gold.Goldscore.External.Vdw>
53.2666

> <Gold.Goldscore.Internal.HBond>
0.0000

> <Gold.Goldscore.External.HBond>
1.0220

> <Gold.Goldscore.Internal.Correction>
-7.2116

> <Gold.Goldscore.Hbonds>
donor molecule, donor type, donor heavy atom, donor atom, acceptor molecule, acceptor atom, score
      P1  H  1931  4507       L1    24  0.51

> <Gold.Goldscore.Internal.Vdw.Weighted>
-5.6758

> <Gold.Goldscore.Internal.Torsion.Weighted>
-4.3459

> <Gold.Goldscore.External.Vdw.Weighted>
73.2416

> <Gold.Goldscore.Internal.HBond.Weighted>
0.0000

> <Gold.Goldscore.External.HBond.Weighted>
1.0220

> <Gold.Goldscore.Internal.Correction.Weighted>
-7.2116

> <Gold.Protein.RotatedTorsions>
[ 3781 1176 1175 1172 ] final  -19.67 input   60.00 | X-H torsion
[ 3847 1247 1246 1244 ] final  120.54 input   60.00 | X-H torsion
[ 4507 1931 1930 1928 ] final   13.82 input   60.00 | X-H torsion
[ 3677 1070 1069 1066 ] final  -58.61 input   60.00 | X-H torsion
[ 3525  925  924  922 ] final   79.86 input   59.99 | X-H torsion
[ 4531 1957 1955 1953 ] final -113.64 input   60.00 | X-H torsion

> <Gold.Protein.ActiveResidues>
 PHE267  PRO268  MET310  ASP335  TRP336  MET339  TYR343  THR360  PRO361  ILE363 
 PRO371  SER374  ILE375  ASN378  PHE381  TYR383  GLN384  PHE387  LEU408  LEU417 
 MET419  LEU428  TYR466  MET469  ASN472  ASP496  VAL498  LEU499  MET503  HIS524 
 TRP525 

> <Gold.Protein.RotatedAtoms>
   -2.5221  -29.9864  -30.7834 H   0  0  0  0  0  0  0  0  0  0  0  0  # atno 3525 bound_to 925 
  -12.3399  -23.8199  -31.1569 H   0  0  0  0  0  0  0  0  0  0  0  0  # atno 3677 bound_to 1070
  -10.6834  -37.0676  -33.9147 H   0  0  0  0  0  0  0  0  0  0  0  0  # atno 3781 bound_to 1176
  -14.3141  -28.2812  -37.7698 H   0  0  0  0  0  0  0  0  0  0  0  0  # atno 3847 bound_to 1247
  -13.1074  -25.2139  -38.9502 H   0  0  0  0  0  0  0  0  0  0  0  0  # atno 4507 bound_to 1931
   -1.3377  -32.7503  -36.9822 H   0  0  0  0  0  0  0  0  0  0  0  0  # atno 4531 bound_to 1957
   -9.3105  -36.3140  -33.4731 LP  0  0  0  0  0  0  0  0  0  0  0  0  # atno 5205 bound_to 1176
  -10.1122  -37.2501  -32.4019 LP  0  0  0  0  0  0  0  0  0  0  0  0  # atno 5206 bound_to 1176
  -15.7046  -28.7260  -37.0511 LP  0  0  0  0  0  0  0  0  0  0  0  0  # atno 5215 bound_to 1247
  -15.5519  -27.2284  -37.6840 LP  0  0  0  0  0  0  0  0  0  0  0  0  # atno 5216 bound_to 1247
  -13.5937  -24.6829  -40.4096 LP  0  0  0  0  0  0  0  0  0  0  0  0  # atno 5217 bound_to 1931
  -12.4933  -23.8328  -39.5533 LP  0  0  0  0  0  0  0  0  0  0  0  0  # atno 5218 bound_to 1931
  -11.0860  -22.7831  -31.1859 LP  0  0  0  0  0  0  0  0  0  0  0  0  # atno 5224 bound_to 1070
  -12.4255  -22.4249  -30.3233 LP  0  0  0  0  0  0  0  0  0  0  0  0  # atno 5225 bound_to 1070

$$$$
IA_144.cdx|SeH_inactivess_minimized|sdf|47|dock8
  -GOLD-   4172119373D 1   1.00000     0.00000

 20 20  0  0  0  0  0  0  0  0  1 V2000
   -9.7845  -25.7420  -34.1424 C   0  0  0  0  0  0  0  0  0  0  0  0
   -9.6250  -26.4526  -35.3319 C   0  0  0  0  0  0  0  0  0  0  0  0
  -11.0043  -25.1300  -33.8537 C   0  0  0  0  0  0  0  0  0  0  0  0
  -10.6851  -26.5512  -36.2330 C   0  0  0  0  0  0  0  0  0  0  0  0
  -12.0645  -25.2285  -34.7548 C   0  0  0  0  0  0  0  0  0  0  0  0
  -11.9049  -25.9391  -35.9445 C   0  0  0  0  0  0  0  0  0  0  0  0
  -13.0102  -26.0419  -36.8840 C   0  0  0  0  0  0  0  0  0  0  0  0
  -14.7889  -24.7309  -38.0543 C   0  0  0  0  0  0  0  0  0  0  0  0
  -15.1215  -23.4042  -38.2680 N   0  0  0  0  0  0  0  0  0  0  0  0
  -13.7173  -24.8578  -37.1641 N   0  0  0  0  0  0  0  0  0  0  0  0
  -13.2805  -27.1301  -37.4213 O   0  0  0  0  0  0  0  0  0  0  0  0
  -15.3820  -25.6637  -38.5925 O   0  0  0  0  0  0  0  0  0  0  0  0
   -8.9590  -25.6652  -33.4408 H   0  0  0  0  0  0  0  0  0  0  0  0
   -8.6751  -26.9290  -35.5565 H   0  0  0  0  0  0  0  0  0  0  0  0
  -11.1286  -24.5768  -32.9274 H   0  0  0  0  0  0  0  0  0  0  0  0
  -10.5499  -27.1074  -37.1570 H   0  0  0  0  0  0  0  0  0  0  0  0
  -13.0104  -24.7475  -34.5196 H   0  0  0  0  0  0  0  0  0  0  0  0
  -14.6204  -22.6482  -37.8141 H   0  0  0  0  0  0  0  0  0  0  0  0
  -15.8796  -23.1474  -38.8915 H   0  0  0  0  0  0  0  0  0  0  0  0
  -13.4224  -24.0179  -36.6748 H   0  0  0  0  0  0  0  0  0  0  0  0
  1  2  2  0  0  0  0
  1  3  1  0  0  0  0
  2  4  1  0  0  0  0
  3  5  2  0  0  0  0
  4  6  2  0  0  0  0
  5  6  1  0  0  0  0
  6  7  1  0  0  0  0
  7 10  1  0  0  0  0
  7 11  2  0  0  0  0
  8  9  1  0  0  0  0
  8 10  1  0  0  0  0
  8 12  2  0  0  0  0
  1 13  1  0  0  0  0
  2 14  1  0  0  0  0
  3 15  1  0  0  0  0
  4 16  1  0  0  0  0
  5 17  1  0  0  0  0
  9 18  1  0  0  0  0
  9 19  1  0  0  0  0
 10 20  1  0  0  0  0
M  END
> <Name>
IA_144.cdx

> <SourceTag>
IA_144

> <Gold.Version>
5.2

> <Gold.Id.Protein>
6HGV|6HGV_protein|mol2

> <Gold.Goldscore.Fitness>
41.2828

> <Gold.Goldscore.Internal.Vdw>
-2.5008

> <Gold.Goldscore.Internal.Torsion>
-3.9499

> <Gold.Goldscore.External.Vdw>
26.9000

> <Gold.Goldscore.Internal.HBond>
0.0000

> <Gold.Goldscore.External.HBond>
4.8884

> <Gold.Goldscore.Internal.Correction>
-5.8575

> <Gold.Goldscore.Hbonds>
donor molecule, donor type, donor heavy atom, donor atom, acceptor molecule, acceptor atom, score
      P1  H  1247  3847       L1    11  0.14
      L1  H     9    18       P1   854  0.17
      L1  H    10    20       P1   853  0.20
      L1  H    10    20       P1   854  0.40

> <Gold.Goldscore.Internal.Vdw.Weighted>
-2.5008

> <Gold.Goldscore.Internal.Torsion.Weighted>
-3.9499

> <Gold.Goldscore.External.Vdw.Weighted>
36.9875

> <Gold.Goldscore.Internal.HBond.Weighted>
0.0000

> <Gold.Goldscore.External.HBond.Weighted>
4.8884

> <Gold.Goldscore.Internal.Correction.Weighted>
-5.8575

> <Gold.Protein.RotatedTorsions>
[ 3781 1176 1175 1172 ] final -127.89 input   60.00 | X-H torsion
[ 3847 1247 1246 1244 ] final  138.87 input   60.00 | X-H torsion
[ 4507 1931 1930 1928 ] final  141.16 input   60.00 | X-H torsion
[ 3677 1070 1069 1066 ] final  171.20 input   60.00 | X-H torsion
[ 3525  925  924  922 ] final  -34.64 input   59.99 | X-H torsion
[ 4531 1957 1955 1953 ] final -128.46 input   60.00 | X-H torsion

> <Gold.Protein.ActiveResidues>
 PHE267  PRO268  MET310  ASP335  TRP336  MET339  TYR343  THR360  PRO361  ILE363 
 PRO371  SER374  ILE375  ASN378  PHE381  TYR383  GLN384  PHE387  LEU408  LEU417 
 MET419  LEU428  TYR466  MET469  ASN472  ASP496  VAL498  LEU499  MET503  HIS524 
 TRP525 

> <Gold.Protein.RotatedAtoms>
   -3.7716  -29.5182  -29.9470 H   0  0  0  0  0  0  0  0  0  0  0  0  # atno 3525 bound_to 925 
  -11.1129  -22.6474  -31.0924 H   0  0  0  0  0  0  0  0  0  0  0  0  # atno 3677 bound_to 1070
   -9.3970  -36.3102  -33.6455 H   0  0  0  0  0  0  0  0  0  0  0  0  # atno 3781 bound_to 1176
  -14.3309  -28.0009  -37.8704 H   0  0  0  0  0  0  0  0  0  0  0  0  # atno 3847 bound_to 1247
  -12.5357  -23.8063  -39.6628 H   0  0  0  0  0  0  0  0  0  0  0  0  # atno 4507 bound_to 1931
   -1.2706  -32.9818  -36.9989 H   0  0  0  0  0  0  0  0  0  0  0  0  # atno 4531 bound_to 1957
   -9.9482  -37.1535  -32.3676 LP  0  0  0  0  0  0  0  0  0  0  0  0  # atno 5205 bound_to 1176
  -10.7700  -37.1734  -33.7786 LP  0  0  0  0  0  0  0  0  0  0  0  0  # atno 5206 bound_to 1176
  -15.4523  -28.8845  -37.0896 LP  0  0  0  0  0  0  0  0  0  0  0  0  # atno 5215 bound_to 1247
  -15.7872  -27.3523  -37.5443 LP  0  0  0  0  0  0  0  0  0  0  0  0  # atno 5216 bound_to 1247
  -13.0280  -25.1492  -38.8869 LP  0  0  0  0  0  0  0  0  0  0  0  0  # atno 5217 bound_to 1931
  -13.6348  -24.7841  -40.3584 LP  0  0  0  0  0  0  0  0  0  0  0  0  # atno 5218 bound_to 1931
  -12.5464  -22.5405  -30.3297 LP  0  0  0  0  0  0  0  0  0  0  0  0  # atno 5224 bound_to 1070
  -12.2006  -23.8482  -31.2445 LP  0  0  0  0  0  0  0  0  0  0  0  0  # atno 5225 bound_to 1070

$$$$
IA_105.cdx|SeH_inactivess_minimized|sdf|7|dock5
  -GOLD-   4172118373D 1   1.00000     0.00000

 60 59  0  0  0  0  0  0  0  0  1 V2000
   -8.5655  -27.3723  -34.8375 C   0  0  0  0  0  0  0  0  0  0  0  0
   -9.4845  -26.4189  -35.0498 C   0  0  0  0  0  0  0  0  0  0  0  0
  -20.6982  -24.6719  -36.2355 C   0  0  0  0  0  0  0  0  0  0  0  0
   -4.0615  -33.1297  -33.4021 C   0  0  0  0  0  0  0  0  0  0  0  0
  -24.0254  -24.5741  -34.5130 C   0  0  0  0  0  0  0  0  0  0  0  0
   -8.6722  -28.7697  -35.3755 C   0  0  0  0  0  0  0  0  0  0  0  0
  -10.7346  -26.6322  -35.8528 C   0  0  0  0  0  0  0  0  0  0  0  0
   -4.0899  -32.7071  -34.8629 C   0  0  0  0  0  0  0  0  0  0  0  0
   -7.6646  -29.7309  -34.7359 C   0  0  0  0  0  0  0  0  0  0  0  0
  -11.9612  -25.9403  -35.2477 C   0  0  0  0  0  0  0  0  0  0  0  0
   -5.2823  -31.8164  -35.2179 C   0  0  0  0  0  0  0  0  0  0  0  0
   -6.2218  -29.4735  -35.1818 C   0  0  0  0  0  0  0  0  0  0  0  0
  -13.2719  -26.1211  -36.0233 C   0  0  0  0  0  0  0  0  0  0  0  0
   -5.2513  -30.4548  -34.5200 C   0  0  0  0  0  0  0  0  0  0  0  0
  -14.5470  -25.7112  -35.2799 C   0  0  0  0  0  0  0  0  0  0  0  0
  -15.7476  -25.3615  -36.1642 C   0  0  0  0  0  0  0  0  0  0  0  0
  -17.0879  -25.4537  -35.4338 C   0  0  0  0  0  0  0  0  0  0  0  0
  -23.1077  -24.3572  -35.6676 C   0  0  0  0  0  0  0  0  0  0  0  0
  -18.2448  -25.0847  -36.3550 C   0  0  0  0  0  0  0  0  0  0  0  0
  -21.7425  -24.6712  -35.3146 N   0  0  0  0  0  0  0  0  0  0  0  0
  -19.4847  -25.0093  -35.6326 N   0  0  0  0  0  0  0  0  0  0  0  0
  -20.8239  -24.4086  -37.4308 O   0  0  0  0  0  0  0  0  0  0  0  0
   -7.6819  -27.1414  -34.2477 H   0  0  0  0  0  0  0  0  0  0  0  0
   -9.3373  -25.4295  -34.6240 H   0  0  0  0  0  0  0  0  0  0  0  0
   -3.2199  -33.8067  -33.2237 H   0  0  0  0  0  0  0  0  0  0  0  0
   -3.9441  -32.2628  -32.7444 H   0  0  0  0  0  0  0  0  0  0  0  0
   -4.9765  -33.6584  -33.1195 H   0  0  0  0  0  0  0  0  0  0  0  0
  -25.0330  -24.2099  -34.7409 H   0  0  0  0  0  0  0  0  0  0  0  0
  -24.0766  -25.6362  -34.2492 H   0  0  0  0  0  0  0  0  0  0  0  0
  -23.6577  -24.0251  -33.6379 H   0  0  0  0  0  0  0  0  0  0  0  0
   -8.5486  -28.7828  -36.4653 H   0  0  0  0  0  0  0  0  0  0  0  0
   -9.6857  -29.1355  -35.1708 H   0  0  0  0  0  0  0  0  0  0  0  0
  -10.9377  -27.7005  -35.9906 H   0  0  0  0  0  0  0  0  0  0  0  0
  -10.5653  -26.2219  -36.8560 H   0  0  0  0  0  0  0  0  0  0  0  0
   -4.0862  -33.5982  -35.5012 H   0  0  0  0  0  0  0  0  0  0  0  0
   -3.1678  -32.1560  -35.0832 H   0  0  0  0  0  0  0  0  0  0  0  0
   -7.9475  -30.7560  -35.0055 H   0  0  0  0  0  0  0  0  0  0  0  0
   -7.7298  -29.6630  -33.6426 H   0  0  0  0  0  0  0  0  0  0  0  0
  -11.7434  -24.8708  -35.1421 H   0  0  0  0  0  0  0  0  0  0  0  0
  -12.1151  -26.3159  -34.2274 H   0  0  0  0  0  0  0  0  0  0  0  0
   -5.3241  -31.6746  -36.3049 H   0  0  0  0  0  0  0  0  0  0  0  0
   -6.2008  -32.3443  -34.9330 H   0  0  0  0  0  0  0  0  0  0  0  0
   -6.1525  -29.5665  -36.2723 H   0  0  0  0  0  0  0  0  0  0  0  0
   -5.9263  -28.4504  -34.9230 H   0  0  0  0  0  0  0  0  0  0  0  0
  -13.3516  -27.1719  -36.3267 H   0  0  0  0  0  0  0  0  0  0  0  0
  -13.2199  -25.5518  -36.9593 H   0  0  0  0  0  0  0  0  0  0  0  0
   -5.5157  -30.5766  -33.4627 H   0  0  0  0  0  0  0  0  0  0  0  0
   -4.2390  -30.0368  -34.5570 H   0  0  0  0  0  0  0  0  0  0  0  0
  -14.8425  -26.5127  -34.5930 H   0  0  0  0  0  0  0  0  0  0  0  0
  -14.3114  -24.8468  -34.6461 H   0  0  0  0  0  0  0  0  0  0  0  0
  -15.7553  -26.0563  -37.0136 H   0  0  0  0  0  0  0  0  0  0  0  0
  -15.6241  -24.3589  -36.5890 H   0  0  0  0  0  0  0  0  0  0  0  0
  -17.2334  -26.4713  -35.0504 H   0  0  0  0  0  0  0  0  0  0  0  0
  -17.0945  -24.7853  -34.5651 H   0  0  0  0  0  0  0  0  0  0  0  0
  -23.1372  -23.3119  -35.9897 H   0  0  0  0  0  0  0  0  0  0  0  0
  -23.3886  -24.9940  -36.5116 H   0  0  0  0  0  0  0  0  0  0  0  0
  -18.3716  -25.8310  -37.1456 H   0  0  0  0  0  0  0  0  0  0  0  0
  -18.0782  -24.1094  -36.8234 H   0  0  0  0  0  0  0  0  0  0  0  0
  -21.5344  -24.9025  -34.3482 H   0  0  0  0  0  0  0  0  0  0  0  0
  -19.4743  -25.1652  -34.6261 H   0  0  0  0  0  0  0  0  0  0  0  0
  1  2  2  0  0  0  0
  1  6  1  0  0  0  0
  2  7  1  0  0  0  0
  3 20  1  0  0  0  0
  3 21  1  0  0  0  0
  3 22  2  0  0  0  0
  4  8  1  0  0  0  0
  5 18  1  0  0  0  0
  6  9  1  0  0  0  0
  7 10  1  0  0  0  0
  8 11  1  0  0  0  0
  9 12  1  0  0  0  0
 10 13  1  0  0  0  0
 11 14  1  0  0  0  0
 12 14  1  0  0  0  0
 13 15  1  0  0  0  0
 15 16  1  0  0  0  0
 16 17  1  0  0  0  0
 17 19  1  0  0  0  0
 18 20  1  0  0  0  0
 19 21  1  0  0  0  0
  1 23  1  0  0  0  0
  2 24  1  0  0  0  0
  4 25  1  0  0  0  0
  4 26  1  0  0  0  0
  4 27  1  0  0  0  0
  5 28  1  0  0  0  0
  5 29  1  0  0  0  0
  5 30  1  0  0  0  0
  6 31  1  0  0  0  0
  6 32  1  0  0  0  0
  7 33  1  0  0  0  0
  7 34  1  0  0  0  0
  8 35  1  0  0  0  0
  8 36  1  0  0  0  0
  9 37  1  0  0  0  0
  9 38  1  0  0  0  0
 10 39  1  0  0  0  0
 10 40  1  0  0  0  0
 11 41  1  0  0  0  0
 11 42  1  0  0  0  0
 12 43  1  0  0  0  0
 12 44  1  0  0  0  0
 13 45  1  0  0  0  0
 13 46  1  0  0  0  0
 14 47  1  0  0  0  0
 14 48  1  0  0  0  0
 15 49  1  0  0  0  0
 15 50  1  0  0  0  0
 16 51  1  0  0  0  0
 16 52  1  0  0  0  0
 17 53  1  0  0  0  0
 17 54  1  0  0  0  0
 18 55  1  0  0  0  0
 18 56  1  0  0  0  0
 19 57  1  0  0  0  0
 19 58  1  0  0  0  0
 20 59  1  0  0  0  0
 21 60  1  0  0  0  0
M  END
> <Name>
IA_105.cdx

> <SourceTag>
IA_105

> <Gold.Version>
5.2

> <Gold.Id.Protein>
6HGV|6HGV_protein|mol2

> <Gold.Goldscore.Fitness>
70.5793

> <Gold.Goldscore.Internal.Vdw>
-10.3804

> <Gold.Goldscore.Internal.Torsion>
-6.8099

> <Gold.Goldscore.External.Vdw>
54.7053

> <Gold.Goldscore.Internal.HBond>
0.0000

> <Gold.Goldscore.External.HBond>
3.1314

> <Gold.Goldscore.Internal.Correction>
-9.4184

> <Gold.Goldscore.Hbonds>
donor molecule, donor type, donor heavy atom, donor atom, acceptor molecule, acceptor atom, score
      L1  H    20    59       P1  2185  0.09
      L1  H    21    60       P1  2185  0.43

> <Gold.Goldscore.Internal.Vdw.Weighted>
-10.3804

> <Gold.Goldscore.Internal.Torsion.Weighted>
-6.8099

> <Gold.Goldscore.External.Vdw.Weighted>
75.2198

> <Gold.Goldscore.Internal.HBond.Weighted>
0.0000

> <Gold.Goldscore.External.HBond.Weighted>
3.1314

> <Gold.Goldscore.Internal.Correction.Weighted>
-9.4184

> <Gold.Protein.RotatedTorsions>
[ 3781 1176 1175 1172 ] final  115.61 input   60.00 | X-H torsion
[ 3847 1247 1246 1244 ] final  -10.89 input   60.00 | X-H torsion
[ 4507 1931 1930 1928 ] final  -34.17 input   60.00 | X-H torsion
[ 3677 1070 1069 1066 ] final  -84.81 input   60.00 | X-H torsion
[ 3525  925  924  922 ] final   29.08 input   59.99 | X-H torsion
[ 4531 1957 1955 1953 ] final  -82.77 input   60.00 | X-H torsion

> <Gold.Protein.ActiveResidues>
 PHE267  PRO268  MET310  ASP335  TRP336  MET339  TYR343  THR360  PRO361  ILE363 
 PRO371  SER374  ILE375  ASN378  PHE381  TYR383  GLN384  PHE387  LEU408  LEU417 
 MET419  LEU428  TYR466  MET469  ASN472  ASP496  VAL498  LEU499  MET503  HIS524 
 TRP525 

> <Gold.Protein.RotatedAtoms>
   -3.2583  -29.6659  -30.7785 H   0  0  0  0  0  0  0  0  0  0  0  0  # atno 3525 bound_to 925 
  -11.9610  -23.8275  -31.3476 H   0  0  0  0  0  0  0  0  0  0  0  0  # atno 3677 bound_to 1070
   -9.8995  -37.1226  -32.3717 H   0  0  0  0  0  0  0  0  0  0  0  0  # atno 3781 bound_to 1176
  -15.8330  -28.5900  -37.0555 H   0  0  0  0  0  0  0  0  0  0  0  0  # atno 3847 bound_to 1247
  -13.5618  -25.3659  -39.5422 H   0  0  0  0  0  0  0  0  0  0  0  0  # atno 4507 bound_to 1931
   -1.6475  -32.3656  -36.9166 H   0  0  0  0  0  0  0  0  0  0  0  0  # atno 4531 bound_to 1957
  -10.7882  -37.2028  -33.7325 LP  0  0  0  0  0  0  0  0  0  0  0  0  # atno 5205 bound_to 1176
   -9.4239  -36.3060  -33.6965 LP  0  0  0  0  0  0  0  0  0  0  0  0  # atno 5206 bound_to 1176
  -15.3849  -27.1945  -37.7625 LP  0  0  0  0  0  0  0  0  0  0  0  0  # atno 5215 bound_to 1247
  -14.3420  -28.4491  -37.6919 LP  0  0  0  0  0  0  0  0  0  0  0  0  # atno 5216 bound_to 1247
  -13.1546  -24.0542  -40.4148 LP  0  0  0  0  0  0  0  0  0  0  0  0  # atno 5217 bound_to 1931
  -12.4749  -24.3084  -38.9519 LP  0  0  0  0  0  0  0  0  0  0  0  0  # atno 5218 bound_to 1931
  -11.1957  -22.4498  -30.9421 LP  0  0  0  0  0  0  0  0  0  0  0  0  # atno 5224 bound_to 1070
  -12.6973  -22.7504  -30.3751 LP  0  0  0  0  0  0  0  0  0  0  0  0  # atno 5225 bound_to 1070

$$$$
IA_144.cdx|SeH_inactivess_minimized|sdf|47|dock5
  -GOLD-   4172119373D 1   1.00000     0.00000

 20 20  0  0  0  0  0  0  0  0  1 V2000
   -9.9952  -25.8069  -34.0614 C   0  0  0  0  0  0  0  0  0  0  0  0
  -11.2198  -25.1930  -33.7990 C   0  0  0  0  0  0  0  0  0  0  0  0
   -9.7878  -26.4586  -35.2771 C   0  0  0  0  0  0  0  0  0  0  0  0
  -12.2374  -25.2308  -34.7524 C   0  0  0  0  0  0  0  0  0  0  0  0
  -10.8053  -26.4964  -36.2305 C   0  0  0  0  0  0  0  0  0  0  0  0
  -12.0301  -25.8825  -35.9682 C   0  0  0  0  0  0  0  0  0  0  0  0
  -13.0909  -25.9219  -36.9621 C   0  0  0  0  0  0  0  0  0  0  0  0
  -14.7835  -24.5242  -38.1595 C   0  0  0  0  0  0  0  0  0  0  0  0
  -15.1097  -23.1861  -38.2989 N   0  0  0  0  0  0  0  0  0  0  0  0
  -13.7588  -24.7115  -37.2259 N   0  0  0  0  0  0  0  0  0  0  0  0
  -13.3579  -26.9810  -37.5563 O   0  0  0  0  0  0  0  0  0  0  0  0
  -15.3446  -25.4181  -38.7902 O   0  0  0  0  0  0  0  0  0  0  0  0
   -9.2030  -25.7775  -33.3190 H   0  0  0  0  0  0  0  0  0  0  0  0
  -11.3811  -24.6858  -32.8523 H   0  0  0  0  0  0  0  0  0  0  0  0
   -8.8342  -26.9364  -35.4815 H   0  0  0  0  0  0  0  0  0  0  0  0
  -13.1878  -24.7491  -34.5376 H   0  0  0  0  0  0  0  0  0  0  0  0
  -10.6327  -27.0072  -37.1744 H   0  0  0  0  0  0  0  0  0  0  0  0
  -15.8355  -22.8769  -38.9364 H   0  0  0  0  0  0  0  0  0  0  0  0
  -14.6310  -22.4707  -37.7618 H   0  0  0  0  0  0  0  0  0  0  0  0
  -13.4702  -23.8991  -36.6888 H   0  0  0  0  0  0  0  0  0  0  0  0
  1  2  2  0  0  0  0
  1  3  1  0  0  0  0
  2  4  1  0  0  0  0
  3  5  2  0  0  0  0
  4  6  2  0  0  0  0
  5  6  1  0  0  0  0
  6  7  1  0  0  0  0
  7 10  1  0  0  0  0
  7 11  2  0  0  0  0
  8  9  1  0  0  0  0
  8 10  1  0  0  0  0
  8 12  2  0  0  0  0
  1 13  1  0  0  0  0
  2 14  1  0  0  0  0
  3 15  1  0  0  0  0
  4 16  1  0  0  0  0
  5 17  1  0  0  0  0
  9 18  1  0  0  0  0
  9 19  1  0  0  0  0
 10 20  1  0  0  0  0
M  END
> <Name>
IA_144.cdx

> <SourceTag>
IA_144

> <Gold.Version>
5.2

> <Gold.Id.Protein>
6HGV|6HGV_protein|mol2

> <Gold.Goldscore.Fitness>
40.9068

> <Gold.Goldscore.Internal.Vdw>
-2.6301

> <Gold.Goldscore.Internal.Torsion>
-3.7475

> <Gold.Goldscore.External.Vdw>
26.5225

> <Gold.Goldscore.Internal.HBond>
0.0000

> <Gold.Goldscore.External.HBond>
4.9567

> <Gold.Goldscore.Internal.Correction>
-5.8592

> <Gold.Goldscore.Hbonds>
donor molecule, donor type, donor heavy atom, donor atom, acceptor molecule, acceptor atom, score
      P1  H  1247  3847       L1    11  0.13
      L1  H     9    19       P1   854  0.16
      L1  H    10    20       P1   853  0.23
      L1  H    10    20       P1   854  0.39

> <Gold.Goldscore.Internal.Vdw.Weighted>
-2.6301

> <Gold.Goldscore.Internal.Torsion.Weighted>
-3.7475

> <Gold.Goldscore.External.Vdw.Weighted>
36.4684

> <Gold.Goldscore.Internal.HBond.Weighted>
0.0000

> <Gold.Goldscore.External.HBond.Weighted>
4.9567

> <Gold.Goldscore.Internal.Correction.Weighted>
-5.8592

> <Gold.Protein.RotatedTorsions>
[ 3781 1176 1175 1172 ] final    2.41 input   60.00 | X-H torsion
[ 3847 1247 1246 1244 ] final  146.26 input   60.00 | X-H torsion
[ 4507 1931 1930 1928 ] final  115.38 input   60.00 | X-H torsion
[ 3677 1070 1069 1066 ] final  -30.16 input   60.00 | X-H torsion
[ 3525  925  924  922 ] final  154.36 input   59.99 | X-H torsion
[ 4531 1957 1955 1953 ] final -118.51 input   60.00 | X-H torsion

> <Gold.Protein.ActiveResidues>
 PHE267  PRO268  MET310  ASP335  TRP336  MET339  TYR343  THR360  PRO361  ILE363 
 PRO371  SER374  ILE375  ASN378  PHE381  TYR383  GLN384  PHE387  LEU408  LEU417 
 MET419  LEU428  TYR466  MET469  ASN472  ASP496  VAL498  LEU499  MET503  HIS524 
 TRP525 

> <Gold.Protein.RotatedAtoms>
   -2.0726  -30.2738  -29.7836 H   0  0  0  0  0  0  0  0  0  0  0  0  # atno 3525 bound_to 925 
  -12.6588  -23.6244  -30.8888 H   0  0  0  0  0  0  0  0  0  0  0  0  # atno 3677 bound_to 1070
  -10.8087  -37.2555  -33.6363 H   0  0  0  0  0  0  0  0  0  0  0  0  # atno 3781 bound_to 1176
  -14.3627  -27.8887  -37.9009 H   0  0  0  0  0  0  0  0  0  0  0  0  # atno 3847 bound_to 1247
  -12.4370  -23.9741  -39.2934 H   0  0  0  0  0  0  0  0  0  0  0  0  # atno 4507 bound_to 1931
   -1.3092  -32.8243  -36.9889 H   0  0  0  0  0  0  0  0  0  0  0  0  # atno 4531 bound_to 1957
   -9.4890  -36.3155  -33.7869 LP  0  0  0  0  0  0  0  0  0  0  0  0  # atno 5205 bound_to 1176
   -9.8076  -37.0594  -32.3685 LP  0  0  0  0  0  0  0  0  0  0  0  0  # atno 5206 bound_to 1176
  -15.3415  -28.9259  -37.1172 LP  0  0  0  0  0  0  0  0  0  0  0  0  # atno 5215 bound_to 1247
  -15.8660  -27.4240  -37.4859 LP  0  0  0  0  0  0  0  0  0  0  0  0  # atno 5216 bound_to 1247
  -13.3082  -25.3395  -39.1362 LP  0  0  0  0  0  0  0  0  0  0  0  0  # atno 5217 bound_to 1931
  -13.4541  -24.4247  -40.4810 LP  0  0  0  0  0  0  0  0  0  0  0  0  # atno 5218 bound_to 1931
  -11.1680  -23.1956  -31.3805 LP  0  0  0  0  0  0  0  0  0  0  0  0  # atno 5224 bound_to 1070
  -12.0222  -22.2092  -30.3988 LP  0  0  0  0  0  0  0  0  0  0  0  0  # atno 5225 bound_to 1070

$$$$
IA_134.cdx|SeH_inactivess_minimized|sdf|36|dock1
  -GOLD-   4172119223D 1   1.00000     0.00000

 30 31  0  0  0  0  0  0  0  0  1 V2000
   -4.2565  -31.5268  -35.3645 C   0  0  0  0  0  0  0  0  0  0  0  0
   -4.5568  -30.1916  -35.1118 C   0  0  0  0  0  0  0  0  0  0  0  0
   -8.9836  -32.4623  -36.0372 C   0  0  0  0  0  0  0  0  0  0  0  0
   -5.2792  -32.4292  -35.6583 C   0  0  0  0  0  0  0  0  0  0  0  0
   -5.8807  -29.7535  -35.1520 C   0  0  0  0  0  0  0  0  0  0  0  0
   -7.6595  -32.9003  -35.9971 C   0  0  0  0  0  0  0  0  0  0  0  0
   -9.2838  -31.1271  -35.7845 C   0  0  0  0  0  0  0  0  0  0  0  0
   -6.6176  -32.0058  -35.7030 C   0  0  0  0  0  0  0  0  0  0  0  0
   -6.9228  -30.6480  -35.4460 C   0  0  0  0  0  0  0  0  0  0  0  0
   -8.2612  -30.2246  -35.4906 C   0  0  0  0  0  0  0  0  0  0  0  0
   -9.6119  -28.1272  -35.8866 C   0  0  0  0  0  0  0  0  0  0  0  0
  -11.9217  -25.9818  -35.1690 C   0  0  0  0  0  0  0  0  0  0  0  0
  -10.5861  -25.8263  -35.8130 C   0  0  0  0  0  0  0  0  0  0  0  0
   -8.6223  -28.8943  -35.2459 N   0  0  0  0  0  0  0  0  0  0  0  0
   -9.6632  -26.8367  -35.3498 N   0  0  0  0  0  0  0  0  0  0  0  0
  -10.3475  -28.5063  -36.7949 O   0  0  0  0  0  0  0  0  0  0  0  0
   -3.2256  -31.8672  -35.3330 H   0  0  0  0  0  0  0  0  0  0  0  0
   -3.7599  -29.4897  -34.8834 H   0  0  0  0  0  0  0  0  0  0  0  0
   -9.7799  -33.1646  -36.2661 H   0  0  0  0  0  0  0  0  0  0  0  0
   -5.0214  -33.4683  -35.8523 H   0  0  0  0  0  0  0  0  0  0  0  0
   -6.0733  -28.7025  -34.9490 H   0  0  0  0  0  0  0  0  0  0  0  0
   -7.4481  -33.9485  -36.1983 H   0  0  0  0  0  0  0  0  0  0  0  0
  -10.3202  -30.8003  -35.8194 H   0  0  0  0  0  0  0  0  0  0  0  0
  -12.6140  -25.2055  -35.5127 H   0  0  0  0  0  0  0  0  0  0  0  0
  -12.3474  -26.9674  -35.3867 H   0  0  0  0  0  0  0  0  0  0  0  0
  -11.8225  -25.8885  -34.0810 H   0  0  0  0  0  0  0  0  0  0  0  0
  -10.1573  -24.8481  -35.5751 H   0  0  0  0  0  0  0  0  0  0  0  0
  -10.6661  -25.9210  -36.8999 H   0  0  0  0  0  0  0  0  0  0  0  0
   -8.1055  -28.4101  -34.5072 H   0  0  0  0  0  0  0  0  0  0  0  0
   -9.0218  -26.5989  -34.5998 H   0  0  0  0  0  0  0  0  0  0  0  0
  1  2  1  0  0  0  0
  1  4  2  0  0  0  0
  2  5  2  0  0  0  0
  3  6  2  0  0  0  0
  3  7  1  0  0  0  0
  4  8  1  0  0  0  0
  5  9  1  0  0  0  0
  6  8  1  0  0  0  0
  7 10  2  0  0  0  0
  8  9  2  0  0  0  0
  9 10  1  0  0  0  0
 10 14  1  0  0  0  0
 11 14  1  0  0  0  0
 11 15  1  0  0  0  0
 11 16  2  0  0  0  0
 12 13  1  0  0  0  0
 13 15  1  0  0  0  0
  1 17  1  0  0  0  0
  2 18  1  0  0  0  0
  3 19  1  0  0  0  0
  4 20  1  0  0  0  0
  5 21  1  0  0  0  0
  6 22  1  0  0  0  0
  7 23  1  0  0  0  0
 12 24  1  0  0  0  0
 12 25  1  0  0  0  0
 12 26  1  0  0  0  0
 13 27  1  0  0  0  0
 13 28  1  0  0  0  0
 14 29  1  0  0  0  0
 15 30  1  0  0  0  0
M  END
> <Name>
IA_134.cdx

> <SourceTag>
IA_134

> <Gold.Version>
5.2

> <Gold.Id.Protein>
6HGV|6HGV_protein|mol2

> <Gold.Goldscore.Fitness>
50.0079

> <Gold.Goldscore.Internal.Vdw>
-2.7207

> <Gold.Goldscore.Internal.Torsion>
-3.0685

> <Gold.Goldscore.External.Vdw>
36.4995

> <Gold.Goldscore.Internal.HBond>
0.0000

> <Gold.Goldscore.External.HBond>
0.0000

> <Gold.Goldscore.Internal.Correction>
-5.6102

> <Gold.Goldscore.Internal.Vdw.Weighted>
-2.7207

> <Gold.Goldscore.Internal.Torsion.Weighted>
-3.0685

> <Gold.Goldscore.External.Vdw.Weighted>
50.1869

> <Gold.Goldscore.Internal.HBond.Weighted>
0.0000

> <Gold.Goldscore.External.HBond.Weighted>
0.0000

> <Gold.Goldscore.Internal.Correction.Weighted>
-5.6102

> <Gold.Protein.RotatedTorsions>
[ 3781 1176 1175 1172 ] final -117.12 input   60.00 | X-H torsion
[ 3847 1247 1246 1244 ] final  126.40 input   60.00 | X-H torsion
[ 4507 1931 1930 1928 ] final   75.78 input   60.00 | X-H torsion
[ 3677 1070 1069 1066 ] final -100.54 input   60.00 | X-H torsion
[ 3525  925  924  922 ] final   39.67 input   59.99 | X-H torsion
[ 4531 1957 1955 1953 ] final  105.81 input   60.00 | X-H torsion

> <Gold.Protein.ActiveResidues>
 PHE267  PRO268  MET310  ASP335  TRP336  MET339  TYR343  THR360  PRO361  ILE363 
 PRO371  SER374  ILE375  ASN378  PHE381  TYR383  GLN384  PHE387  LEU408  LEU417 
 MET419  LEU428  TYR466  MET469  ASN472  ASP496  VAL498  LEU499  MET503  HIS524 
 TRP525 

> <Gold.Protein.RotatedAtoms>
   -3.1079  -29.7260  -30.8387 H   0  0  0  0  0  0  0  0  0  0  0  0  # atno 3525 bound_to 925 
  -11.7271  -23.7502  -31.4185 H   0  0  0  0  0  0  0  0  0  0  0  0  # atno 3677 bound_to 1070
   -9.4963  -36.3223  -33.7900 H   0  0  0  0  0  0  0  0  0  0  0  0  # atno 3781 bound_to 1176
  -14.3097  -28.1925  -37.8055 H   0  0  0  0  0  0  0  0  0  0  0  0  # atno 3847 bound_to 1247
  -12.5275  -24.4473  -38.8807 H   0  0  0  0  0  0  0  0  0  0  0  0  # atno 4507 bound_to 1931
   -2.5927  -33.9688  -36.7646 H   0  0  0  0  0  0  0  0  0  0  0  0  # atno 4531 bound_to 1957
   -9.8012  -37.0549  -32.3693 LP  0  0  0  0  0  0  0  0  0  0  0  0  # atno 5205 bound_to 1176
  -10.8170  -37.2598  -33.6314 LP  0  0  0  0  0  0  0  0  0  0  0  0  # atno 5206 bound_to 1176
  -15.6285  -28.7848  -37.0586 LP  0  0  0  0  0  0  0  0  0  0  0  0  # atno 5215 bound_to 1247
  -15.6324  -27.2591  -37.6407 LP  0  0  0  0  0  0  0  0  0  0  0  0  # atno 5216 bound_to 1247
  -13.6278  -25.3325  -39.6893 LP  0  0  0  0  0  0  0  0  0  0  0  0  # atno 5217 bound_to 1931
  -13.0432  -23.9553  -40.3436 LP  0  0  0  0  0  0  0  0  0  0  0  0  # atno 5218 bound_to 1931
  -11.3392  -22.3014  -30.7871 LP  0  0  0  0  0  0  0  0  0  0  0  0  # atno 5224 bound_to 1070
  -12.7893  -22.9766  -30.4587 LP  0  0  0  0  0  0  0  0  0  0  0  0  # atno 5225 bound_to 1070

$$$$
IA_154.cdx|SeH_inactivess_minimized|sdf|55|dock10
  -GOLD-   4172119503D 1   1.00000     0.00000

 30 30  0  0  0  0  0  0  0  0  1 V2000
  -16.5058  -24.8759  -36.5739 C   0  0  0  0  0  0  0  0  0  0  0  0
  -18.1005  -23.8681  -38.0834 C   0  0  0  0  0  0  0  0  0  0  0  0
  -17.5408  -25.2001  -35.6970 C   0  0  0  0  0  0  0  0  0  0  0  0
  -19.1356  -24.1924  -37.2064 C   0  0  0  0  0  0  0  0  0  0  0  0
  -16.7856  -24.2098  -37.7672 C   0  0  0  0  0  0  0  0  0  0  0  0
  -18.8557  -24.8585  -36.0131 C   0  0  0  0  0  0  0  0  0  0  0  0
  -13.4660  -25.2639  -37.6042 C   0  0  0  0  0  0  0  0  0  0  0  0
  -10.2664  -25.2095  -34.4191 C   0  0  0  0  0  0  0  0  0  0  0  0
  -11.3310  -26.2308  -34.7936 C   0  0  0  0  0  0  0  0  0  0  0  0
  -11.6210  -26.2577  -36.2895 C   0  0  0  0  0  0  0  0  0  0  0  0
  -12.4173  -25.1422  -36.7116 N   0  0  0  0  0  0  0  0  0  0  0  0
  -14.1110  -24.0146  -37.8696 N   0  0  0  0  0  0  0  0  0  0  0  0
  -13.8205  -26.3195  -38.1208 O   0  0  0  0  0  0  0  0  0  0  0  0
  -15.4516  -24.7905  -39.9362 O   0  0  0  0  0  0  0  0  0  0  0  0
  -15.6168  -22.3906  -39.1942 O   0  0  0  0  0  0  0  0  0  0  0  0
  -15.4741  -23.7988  -38.8784 S   0  0  0  0  0  0  0  0  0  0  0  0
  -20.1327  -25.2587  -34.9312 Cl  0  0  0  0  0  0  0  0  0  0  0  0
  -15.4850  -25.1467  -36.3178 H   0  0  0  0  0  0  0  0  0  0  0  0
  -18.3297  -23.3492  -39.0104 H   0  0  0  0  0  0  0  0  0  0  0  0
  -17.3080  -25.7192  -34.7707 H   0  0  0  0  0  0  0  0  0  0  0  0
  -20.1553  -23.9200  -37.4658 H   0  0  0  0  0  0  0  0  0  0  0  0
   -9.3329  -25.4005  -34.9578 H   0  0  0  0  0  0  0  0  0  0  0  0
  -10.6052  -24.2007  -34.6764 H   0  0  0  0  0  0  0  0  0  0  0  0
  -10.0553  -25.2286  -33.3454 H   0  0  0  0  0  0  0  0  0  0  0  0
  -12.2556  -25.9855  -34.2582 H   0  0  0  0  0  0  0  0  0  0  0  0
  -11.0130  -27.2236  -34.4538 H   0  0  0  0  0  0  0  0  0  0  0  0
  -10.6839  -26.2134  -36.8534 H   0  0  0  0  0  0  0  0  0  0  0  0
  -12.1480  -27.1733  -36.5758 H   0  0  0  0  0  0  0  0  0  0  0  0
  -12.2015  -24.2225  -36.3383 H   0  0  0  0  0  0  0  0  0  0  0  0
  -13.7493  -23.1796  -37.3917 H   0  0  0  0  0  0  0  0  0  0  0  0
  1  3  1  0  0  0  0
  1  5  2  0  0  0  0
  2  4  2  0  0  0  0
  2  5  1  0  0  0  0
  3  6  2  0  0  0  0
  4  6  1  0  0  0  0
  5 16  1  0  0  0  0
  6 17  1  0  0  0  0
  7 11  1  0  0  0  0
  7 12  1  0  0  0  0
  7 13  2  0  0  0  0
  8  9  1  0  0  0  0
  9 10  1  0  0  0  0
 10 11  1  0  0  0  0
 12 16  1  0  0  0  0
 14 16  2  0  0  0  0
 15 16  2  0  0  0  0
  1 18  1  0  0  0  0
  2 19  1  0  0  0  0
  3 20  1  0  0  0  0
  4 21  1  0  0  0  0
  8 22  1  0  0  0  0
  8 23  1  0  0  0  0
  8 24  1  0  0  0  0
  9 25  1  0  0  0  0
  9 26  1  0  0  0  0
 10 27  1  0  0  0  0
 10 28  1  0  0  0  0
 11 29  1  0  0  0  0
 12 30  1  0  0  0  0
M  END
> <Name>
IA_154.cdx

> <SourceTag>
IA_154

> <Gold.Version>
5.2

> <Gold.Id.Protein>
6HGV|6HGV_protein|mol2

> <Gold.Goldscore.Fitness>
58.3023

> <Gold.Goldscore.Internal.Vdw>
-2.0878

> <Gold.Goldscore.Internal.Torsion>
-4.5165

> <Gold.Goldscore.External.Vdw>
40.1460

> <Gold.Goldscore.Internal.HBond>
0.0000

> <Gold.Goldscore.External.HBond>
7.2816

> <Gold.Goldscore.Internal.Correction>
-2.4242

> <Gold.Goldscore.Hbonds>
donor molecule, donor type, donor heavy atom, donor atom, acceptor molecule, acceptor atom, score
      P1  H  1247  3847       L1    13  0.56
      L1  H    11    29       P1   854  0.14
      L1  H    12    30       P1   854  0.88

> <Gold.Goldscore.Internal.Vdw.Weighted>
-2.0878

> <Gold.Goldscore.Internal.Torsion.Weighted>
-4.5165

> <Gold.Goldscore.External.Vdw.Weighted>
55.2008

> <Gold.Goldscore.Internal.HBond.Weighted>
0.0000

> <Gold.Goldscore.External.HBond.Weighted>
7.2816

> <Gold.Goldscore.Internal.Correction.Weighted>
-2.4242

> <Gold.Protein.RotatedTorsions>
[ 3781 1176 1175 1172 ] final  -13.78 input   60.00 | X-H torsion
[ 3847 1247 1246 1244 ] final -174.45 input   60.00 | X-H torsion
[ 4507 1931 1930 1928 ] final  159.61 input   60.00 | X-H torsion
[ 3677 1070 1069 1066 ] final  -98.17 input   60.00 | X-H torsion
[ 3525  925  924  922 ] final  110.00 input   59.99 | X-H torsion
[ 4531 1957 1955 1953 ] final  -15.67 input   60.00 | X-H torsion

> <Gold.Protein.ActiveResidues>
 PHE267  PRO268  MET310  ASP335  TRP336  MET339  TYR343  THR360  PRO361  ILE363 
 PRO371  SER374  ILE375  ASN378  PHE381  TYR383  GLN384  PHE387  LEU408  LEU417 
 MET419  LEU428  TYR466  MET469  ASN472  ASP496  VAL498  LEU499  MET503  HIS524 
 TRP525 

> <Gold.Protein.RotatedAtoms>
   -2.1913  -30.1592  -30.4709 H   0  0  0  0  0  0  0  0  0  0  0  0  # atno 3525 bound_to 925 
  -11.7617  -23.7656  -31.4103 H   0  0  0  0  0  0  0  0  0  0  0  0  # atno 3677 bound_to 1070
  -10.7272  -37.1217  -33.8483 H   0  0  0  0  0  0  0  0  0  0  0  0  # atno 3781 bound_to 1176
  -14.7399  -27.3865  -37.9449 H   0  0  0  0  0  0  0  0  0  0  0  0  # atno 3847 bound_to 1247
  -12.6729  -23.7797  -39.9284 H   0  0  0  0  0  0  0  0  0  0  0  0  # atno 4507 bound_to 1931
   -2.6638  -32.3373  -36.7229 H   0  0  0  0  0  0  0  0  0  0  0  0  # atno 4531 bound_to 1957
   -9.3485  -36.3061  -33.5618 LP  0  0  0  0  0  0  0  0  0  0  0  0  # atno 5205 bound_to 1176
  -10.0302  -37.2036  -32.3801 LP  0  0  0  0  0  0  0  0  0  0  0  0  # atno 5206 bound_to 1176
  -14.7546  -28.9034  -37.3562 LP  0  0  0  0  0  0  0  0  0  0  0  0  # atno 5215 bound_to 1247
  -16.0730  -27.9521  -37.2026 LP  0  0  0  0  0  0  0  0  0  0  0  0  # atno 5216 bound_to 1247
  -12.8288  -24.9400  -38.7982 LP  0  0  0  0  0  0  0  0  0  0  0  0  # atno 5217 bound_to 1931
  -13.6959  -25.0201  -40.1796 LP  0  0  0  0  0  0  0  0  0  0  0  0  # atno 5218 bound_to 1931
  -11.3143  -22.3206  -30.8103 LP  0  0  0  0  0  0  0  0  0  0  0  0  # atno 5224 bound_to 1070
  -12.7794  -22.9419  -30.4438 LP  0  0  0  0  0  0  0  0  0  0  0  0  # atno 5225 bound_to 1070

$$$$
IA_204|SeH_inactivess_minimized|sdf|101|dock3
  -GOLD-   4172120473D 1   1.00000     0.00000

 30 30  0  0  0  0  0  0  0  0  1 V2000
  -17.8667  -24.6911  -36.7385 C   0  0  0  0  0  0  0  0  0  0  0  0
  -14.3499  -25.3596  -37.3570 C   0  0  0  0  0  0  0  0  0  0  0  0
  -11.3196  -26.5884  -33.9410 C   0  0  0  0  0  0  0  0  0  0  0  0
  -11.2650  -25.0933  -34.2433 C   0  0  0  0  0  0  0  0  0  0  0  0
  -12.2999  -27.3190  -34.8548 C   0  0  0  0  0  0  0  0  0  0  0  0
  -10.9696  -24.8282  -35.7202 C   0  0  0  0  0  0  0  0  0  0  0  0
  -12.0018  -27.0489  -36.3303 C   0  0  0  0  0  0  0  0  0  0  0  0
  -11.9421  -25.5517  -36.6612 C   0  0  0  0  0  0  0  0  0  0  0  0
  -16.7576  -24.8449  -37.7338 C   0  0  0  0  0  0  0  0  0  0  0  0
  -13.2774  -24.9576  -36.5648 N   0  0  0  0  0  0  0  0  0  0  0  0
  -15.4989  -24.6312  -37.0592 N   0  0  0  0  0  0  0  0  0  0  0  0
  -18.8808  -24.0240  -36.8786 O   0  0  0  0  0  0  0  0  0  0  0  0
  -14.2916  -26.2443  -38.2100 O   0  0  0  0  0  0  0  0  0  0  0  0
  -17.5906  -25.4141  -35.6223 O   0  0  0  0  0  0  0  0  0  0  0  0
  -10.3187  -27.0235  -34.0512 H   0  0  0  0  0  0  0  0  0  0  0  0
  -11.6171  -26.7376  -32.8946 H   0  0  0  0  0  0  0  0  0  0  0  0
  -12.2174  -24.6265  -33.9695 H   0  0  0  0  0  0  0  0  0  0  0  0
  -10.4887  -24.6239  -33.6273 H   0  0  0  0  0  0  0  0  0  0  0  0
  -12.2439  -28.3972  -34.6637 H   0  0  0  0  0  0  0  0  0  0  0  0
  -13.3235  -27.0053  -34.6233 H   0  0  0  0  0  0  0  0  0  0  0  0
  -11.0063  -23.7412  -35.9100 H   0  0  0  0  0  0  0  0  0  0  0  0
   -9.9337  -25.1333  -35.9449 H   0  0  0  0  0  0  0  0  0  0  0  0
  -11.0481  -27.5313  -36.6035 H   0  0  0  0  0  0  0  0  0  0  0  0
  -12.7708  -27.5382  -36.9533 H   0  0  0  0  0  0  0  0  0  0  0  0
  -11.6258  -25.4155  -37.6923 H   0  0  0  0  0  0  0  0  0  0  0  0
  -16.7719  -25.8571  -38.1465 H   0  0  0  0  0  0  0  0  0  0  0  0
  -16.8669  -24.1038  -38.5299 H   0  0  0  0  0  0  0  0  0  0  0  0
  -13.4284  -24.2164  -35.8871 H   0  0  0  0  0  0  0  0  0  0  0  0
  -15.4651  -23.9511  -36.3064 H   0  0  0  0  0  0  0  0  0  0  0  0
  -18.2660  -25.2803  -34.9237 H   0  0  0  0  0  0  0  0  0  0  0  0
  1  9  1  0  0  0  0
  1 12  2  0  0  0  0
  1 14  1  0  0  0  0
  2 10  1  0  0  0  0
  2 11  1  0  0  0  0
  2 13  2  0  0  0  0
  3  4  1  0  0  0  0
  3  5  1  0  0  0  0
  4  6  1  0  0  0  0
  5  7  1  0  0  0  0
  6  8  1  0  0  0  0
  7  8  1  0  0  0  0
  8 10  1  0  0  0  0
  9 11  1  0  0  0  0
  3 15  1  0  0  0  0
  3 16  1  0  0  0  0
  4 17  1  0  0  0  0
  4 18  1  0  0  0  0
  5 19  1  0  0  0  0
  5 20  1  0  0  0  0
  6 21  1  0  0  0  0
  6 22  1  0  0  0  0
  7 23  1  0  0  0  0
  7 24  1  0  0  0  0
  8 25  1  0  0  0  0
  9 26  1  0  0  0  0
  9 27  1  0  0  0  0
 10 28  1  0  0  0  0
 11 29  1  0  0  0  0
 14 30  1  0  0  0  0
M  END
> <Name>
IA_204

> <SourceTag>
IA_204

> <Gold.Version>
5.2

> <Gold.Id.Protein>
6HGV|6HGV_protein|mol2

> <Gold.Goldscore.Fitness>
44.8316

> <Gold.Goldscore.Internal.Vdw>
-1.7297

> <Gold.Goldscore.Internal.Torsion>
-1.9787

> <Gold.Goldscore.External.Vdw>
29.2571

> <Gold.Goldscore.Internal.HBond>
0.0000

> <Gold.Goldscore.External.HBond>
5.7746

> <Gold.Goldscore.Internal.Correction>
-2.5369

> <Gold.Goldscore.Hbonds>
donor molecule, donor type, donor heavy atom, donor atom, acceptor molecule, acceptor atom, score
      L1  H    10    28       P1   853  0.70
      L1  H    11    29       P1   853  0.11
      L1  H    14    30       P1  2185  0.15

> <Gold.Goldscore.Internal.Vdw.Weighted>
-1.7297

> <Gold.Goldscore.Internal.Torsion.Weighted>
-1.9787

> <Gold.Goldscore.External.Vdw.Weighted>
40.2285

> <Gold.Goldscore.Internal.HBond.Weighted>
0.0000

> <Gold.Goldscore.External.HBond.Weighted>
5.7746

> <Gold.Goldscore.Internal.Correction.Weighted>
-2.5369

> <Gold.Protein.RotatedTorsions>
[ 3781 1176 1175 1172 ] final -127.94 input   60.00 | X-H torsion
[ 3847 1247 1246 1244 ] final  -41.41 input   60.00 | X-H torsion
[ 4507 1931 1930 1928 ] final  133.83 input   60.00 | X-H torsion
[ 3677 1070 1069 1066 ] final -118.82 input   60.00 | X-H torsion
[ 3525  925  924  922 ] final   80.37 input   59.99 | X-H torsion
[ 4531 1957 1955 1953 ] final  175.75 input   60.00 | X-H torsion

> <Gold.Protein.ActiveResidues>
 PHE267  PRO268  MET310  ASP335  TRP336  MET339  TYR343  THR360  PRO361  ILE363 
 PRO371  SER374  ILE375  ASN378  PHE381  TYR383  GLN384  PHE387  LEU408  LEU417 
 MET419  LEU428  TYR466  MET469  ASN472  ASP496  VAL498  LEU499  MET503  HIS524 
 TRP525 

> <Gold.Protein.RotatedAtoms>
   -2.5154  -29.9896  -30.7799 H   0  0  0  0  0  0  0  0  0  0  0  0  # atno 3525 bound_to 925 
  -11.4776  -23.5916  -31.4508 H   0  0  0  0  0  0  0  0  0  0  0  0  # atno 3677 bound_to 1070
   -9.3966  -36.3102  -33.6448 H   0  0  0  0  0  0  0  0  0  0  0  0  # atno 3781 bound_to 1176
  -16.0474  -28.1539  -37.1382 H   0  0  0  0  0  0  0  0  0  0  0  0  # atno 3847 bound_to 1247
  -12.4957  -23.8392  -39.5550 H   0  0  0  0  0  0  0  0  0  0  0  0  # atno 4507 bound_to 1931
   -1.5492  -33.8115  -36.9603 H   0  0  0  0  0  0  0  0  0  0  0  0  # atno 4531 bound_to 1957
   -9.9488  -37.1539  -32.3677 LP  0  0  0  0  0  0  0  0  0  0  0  0  # atno 5205 bound_to 1176
  -10.7698  -37.1730  -33.7792 LP  0  0  0  0  0  0  0  0  0  0  0  0  # atno 5206 bound_to 1176
  -14.9193  -27.2749  -37.9145 LP  0  0  0  0  0  0  0  0  0  0  0  0  # atno 5215 bound_to 1247
  -14.5917  -28.8078  -37.4567 LP  0  0  0  0  0  0  0  0  0  0  0  0  # atno 5216 bound_to 1247
  -13.1094  -25.2171  -38.9443 LP  0  0  0  0  0  0  0  0  0  0  0  0  # atno 5217 bound_to 1931
  -13.5938  -24.6831  -40.4095 LP  0  0  0  0  0  0  0  0  0  0  0  0  # atno 5218 bound_to 1931
  -11.5626  -22.1964  -30.6175 LP  0  0  0  0  0  0  0  0  0  0  0  0  # atno 5224 bound_to 1070
  -12.8172  -23.2414  -30.5958 LP  0  0  0  0  0  0  0  0  0  0  0  0  # atno 5225 bound_to 1070

$$$$
IA_206.cdx|SeH_inactivess_minimized|sdf|103|dock6
  -GOLD-   4172120503D 1   1.00000     0.00000

 30 30  0  0  0  0  0  0  0  0  1 V2000
  -13.3206  -26.4644  -35.4319 C   0  0  0  0  0  0  0  0  0  0  0  0
  -12.7420  -24.7338  -37.0153 C   0  0  0  0  0  0  0  0  0  0  0  0
  -14.6651  -26.3318  -35.7782 C   0  0  0  0  0  0  0  0  0  0  0  0
  -14.0867  -24.6012  -37.3618 C   0  0  0  0  0  0  0  0  0  0  0  0
  -12.3589  -25.6653  -36.0503 C   0  0  0  0  0  0  0  0  0  0  0  0
  -15.0483  -25.4002  -36.7432 C   0  0  0  0  0  0  0  0  0  0  0  0
  -17.0562  -24.1401  -37.6153 C   0  0  0  0  0  0  0  0  0  0  0  0
  -10.3874  -27.2309  -35.9260 C   0  0  0  0  0  0  0  0  0  0  0  0
  -10.6443  -25.3899  -34.2232 C   0  0  0  0  0  0  0  0  0  0  0  0
  -19.3368  -23.4400  -38.3620 C   0  0  0  0  0  0  0  0  0  0  0  0
  -10.9212  -25.8071  -35.6800 C   0  0  0  0  0  0  0  0  0  0  0  0
  -16.3931  -25.2676  -37.0901 N   0  0  0  0  0  0  0  0  0  0  0  0
  -18.4111  -24.4130  -37.8293 N   0  0  0  0  0  0  0  0  0  0  0  0
  -16.5432  -23.0514  -37.8632 O   0  0  0  0  0  0  0  0  0  0  0  0
  -13.0313  -27.1912  -34.6773 H   0  0  0  0  0  0  0  0  0  0  0  0
  -11.9995  -24.1066  -37.5018 H   0  0  0  0  0  0  0  0  0  0  0  0
  -15.4060  -26.9600  -35.2900 H   0  0  0  0  0  0  0  0  0  0  0  0
  -14.3743  -23.8713  -38.1143 H   0  0  0  0  0  0  0  0  0  0  0  0
  -10.5450  -27.5470  -36.9630 H   0  0  0  0  0  0  0  0  0  0  0  0
  -10.8818  -27.9620  -35.2771 H   0  0  0  0  0  0  0  0  0  0  0  0
   -9.3115  -27.2762  -35.7232 H   0  0  0  0  0  0  0  0  0  0  0  0
  -10.9756  -24.3598  -34.0510 H   0  0  0  0  0  0  0  0  0  0  0  0
   -9.5759  -25.4421  -33.9877 H   0  0  0  0  0  0  0  0  0  0  0  0
  -11.1730  -26.0340  -33.5120 H   0  0  0  0  0  0  0  0  0  0  0  0
  -19.6651  -22.7612  -37.5707 H   0  0  0  0  0  0  0  0  0  0  0  0
  -20.2132  -23.9420  -38.7811 H   0  0  0  0  0  0  0  0  0  0  0  0
  -18.8574  -22.8548  -39.1513 H   0  0  0  0  0  0  0  0  0  0  0  0
  -10.3039  -25.1382  -36.3096 H   0  0  0  0  0  0  0  0  0  0  0  0
  -16.9884  -26.0908  -36.9504 H   0  0  0  0  0  0  0  0  0  0  0  0
  -18.7605  -25.3380  -37.5995 H   0  0  0  0  0  0  0  0  0  0  0  0
  1  3  1  0  0  0  0
  1  5  2  0  0  0  0
  2  4  2  0  0  0  0
  2  5  1  0  0  0  0
  3  6  2  0  0  0  0
  4  6  1  0  0  0  0
  5 11  1  0  0  0  0
  6 12  1  0  0  0  0
  7 12  1  0  0  0  0
  7 13  1  0  0  0  0
  7 14  2  0  0  0  0
  8 11  1  0  0  0  0
  9 11  1  0  0  0  0
 10 13  1  0  0  0  0
  1 15  1  0  0  0  0
  2 16  1  0  0  0  0
  3 17  1  0  0  0  0
  4 18  1  0  0  0  0
  8 19  1  0  0  0  0
  8 20  1  0  0  0  0
  8 21  1  0  0  0  0
  9 22  1  0  0  0  0
  9 23  1  0  0  0  0
  9 24  1  0  0  0  0
 10 25  1  0  0  0  0
 10 26  1  0  0  0  0
 10 27  1  0  0  0  0
 11 28  1  0  0  0  0
 12 29  1  0  0  0  0
 13 30  1  0  0  0  0
M  END
> <Name>
IA_206.cdx

> <SourceTag>
IA_206

> <Gold.Version>
5.2

> <Gold.Id.Protein>
6HGV|6HGV_protein|mol2

> <Gold.Goldscore.Fitness>
48.2902

> <Gold.Goldscore.Internal.Vdw>
-1.9997

> <Gold.Goldscore.Internal.Torsion>
-2.2309

> <Gold.Goldscore.External.Vdw>
35.2696

> <Gold.Goldscore.Internal.HBond>
0.0000

> <Gold.Goldscore.External.HBond>
0.0000

> <Gold.Goldscore.Internal.Correction>
-4.0250

> <Gold.Goldscore.Internal.Vdw.Weighted>
-1.9997

> <Gold.Goldscore.Internal.Torsion.Weighted>
-2.2309

> <Gold.Goldscore.External.Vdw.Weighted>
48.4957

> <Gold.Goldscore.Internal.HBond.Weighted>
0.0000

> <Gold.Goldscore.External.HBond.Weighted>
0.0000

> <Gold.Goldscore.Internal.Correction.Weighted>
-4.0250

> <Gold.Protein.RotatedTorsions>
[ 3781 1176 1175 1172 ] final  -58.07 input   60.00 | X-H torsion
[ 3847 1247 1246 1244 ] final  134.78 input   60.00 | X-H torsion
[ 4507 1931 1930 1928 ] final  -90.75 input   60.00 | X-H torsion
[ 3677 1070 1069 1066 ] final -109.12 input   60.00 | X-H torsion
[ 3525  925  924  922 ] final  149.83 input   59.99 | X-H torsion
[ 4531 1957 1955 1953 ] final   69.55 input   60.00 | X-H torsion

> <Gold.Protein.ActiveResidues>
 PHE267  PRO268  MET310  ASP335  TRP336  MET339  TYR343  THR360  PRO361  ILE363 
 PRO371  SER374  ILE375  ASN378  PHE381  TYR383  GLN384  PHE387  LEU408  LEU417 
 MET419  LEU428  TYR466  MET469  ASN472  ASP496  VAL498  LEU499  MET503  HIS524 
 TRP525 

> <Gold.Protein.RotatedAtoms>
   -2.0615  -30.2720  -29.8567 H   0  0  0  0  0  0  0  0  0  0  0  0  # atno 3525 bound_to 925 
  -11.6056  -23.6842  -31.4407 H   0  0  0  0  0  0  0  0  0  0  0  0  # atno 3677 bound_to 1070
  -10.2579  -36.6935  -34.1557 H   0  0  0  0  0  0  0  0  0  0  0  0  # atno 3781 bound_to 1176
  -14.3194  -28.0638  -37.8509 H   0  0  0  0  0  0  0  0  0  0  0  0  # atno 3847 bound_to 1247
  -13.6633  -24.8907  -40.2846 H   0  0  0  0  0  0  0  0  0  0  0  0  # atno 4507 bound_to 1931
   -2.9985  -33.5593  -36.6804 H   0  0  0  0  0  0  0  0  0  0  0  0  # atno 4531 bound_to 1957
   -9.2608  -36.5014  -32.8841 LP  0  0  0  0  0  0  0  0  0  0  0  0  # atno 5205 bound_to 1176
  -10.5905  -37.4395  -32.7483 LP  0  0  0  0  0  0  0  0  0  0  0  0  # atno 5206 bound_to 1176
  -15.5119  -28.8558  -37.0772 LP  0  0  0  0  0  0  0  0  0  0  0  0  # atno 5215 bound_to 1247
  -15.7392  -27.3177  -37.5763 LP  0  0  0  0  0  0  0  0  0  0  0  0  # atno 5216 bound_to 1247
  -12.5883  -23.7776  -39.7812 LP  0  0  0  0  0  0  0  0  0  0  0  0  # atno 5217 bound_to 1931
  -12.9389  -25.0635  -38.8378 LP  0  0  0  0  0  0  0  0  0  0  0  0  # atno 5218 bound_to 1931
  -11.4376  -22.2424  -30.7051 LP  0  0  0  0  0  0  0  0  0  0  0  0  # atno 5224 bound_to 1070
  -12.8133  -23.1021  -30.5184 LP  0  0  0  0  0  0  0  0  0  0  0  0  # atno 5225 bound_to 1070

$$$$
IA_109.cdx|SeH_inactivess_minimized|sdf|11|dock2
  -GOLD-   4172118453D 1   1.00000     0.00000

 28 28  0  0  0  0  0  0  0  0  1 V2000
  -15.7996  -24.8185  -39.5939 C   0  0  0  0  0  0  0  0  0  0  0  0
  -13.8086  -25.4809  -37.4365 C   0  0  0  0  0  0  0  0  0  0  0  0
  -11.3774  -26.6568  -33.6043 C   0  0  0  0  0  0  0  0  0  0  0  0
  -11.2296  -25.1715  -33.9235 C   0  0  0  0  0  0  0  0  0  0  0  0
  -12.2195  -27.3831  -34.6498 C   0  0  0  0  0  0  0  0  0  0  0  0
  -10.6924  -24.9507  -35.3382 C   0  0  0  0  0  0  0  0  0  0  0  0
  -11.6798  -27.1573  -36.0627 C   0  0  0  0  0  0  0  0  0  0  0  0
  -11.5222  -25.6708  -36.4095 C   0  0  0  0  0  0  0  0  0  0  0  0
  -16.1259  -24.9426  -38.1744 C   0  0  0  0  0  0  0  0  0  0  0  0
  -15.5384  -24.7226  -40.7204 N   0  0  0  0  0  0  0  0  0  0  0  0
  -12.8369  -25.0391  -36.5419 N   0  0  0  0  0  0  0  0  0  0  0  0
  -14.9608  -24.7027  -37.3558 N   0  0  0  0  0  0  0  0  0  0  0  0
  -13.6689  -26.4356  -38.1998 O   0  0  0  0  0  0  0  0  0  0  0  0
  -10.3855  -27.1210  -33.5426 H   0  0  0  0  0  0  0  0  0  0  0  0
  -11.8439  -26.7722  -32.6169 H   0  0  0  0  0  0  0  0  0  0  0  0
  -12.1990  -24.6729  -33.8165 H   0  0  0  0  0  0  0  0  0  0  0  0
  -10.5487  -24.7080  -33.1996 H   0  0  0  0  0  0  0  0  0  0  0  0
  -12.2277  -28.4574  -34.4307 H   0  0  0  0  0  0  0  0  0  0  0  0
  -13.2570  -27.0365  -34.5930 H   0  0  0  0  0  0  0  0  0  0  0  0
  -10.6651  -23.8681  -35.5530 H   0  0  0  0  0  0  0  0  0  0  0  0
   -9.6436  -25.2888  -35.3864 H   0  0  0  0  0  0  0  0  0  0  0  0
  -10.7096  -27.6716  -36.1686 H   0  0  0  0  0  0  0  0  0  0  0  0
  -12.3529  -27.6411  -36.7919 H   0  0  0  0  0  0  0  0  0  0  0  0
  -11.0401  -25.5685  -37.3783 H   0  0  0  0  0  0  0  0  0  0  0  0
  -16.8912  -24.2185  -37.8811 H   0  0  0  0  0  0  0  0  0  0  0  0
  -16.4930  -25.9461  -37.9409 H   0  0  0  0  0  0  0  0  0  0  0  0
  -13.0504  -24.2399  -35.9526 H   0  0  0  0  0  0  0  0  0  0  0  0
  -15.0032  -23.9625  -36.6624 H   0  0  0  0  0  0  0  0  0  0  0  0
  1  9  1  0  0  0  0
  1 10  3  0  0  0  0
  2 11  1  0  0  0  0
  2 12  1  0  0  0  0
  2 13  2  0  0  0  0
  3  4  1  0  0  0  0
  3  5  1  0  0  0  0
  4  6  1  0  0  0  0
  5  7  1  0  0  0  0
  6  8  1  0  0  0  0
  7  8  1  0  0  0  0
  8 11  1  0  0  0  0
  9 12  1  0  0  0  0
  3 14  1  0  0  0  0
  3 15  1  0  0  0  0
  4 16  1  0  0  0  0
  4 17  1  0  0  0  0
  5 18  1  0  0  0  0
  5 19  1  0  0  0  0
  6 20  1  0  0  0  0
  6 21  1  0  0  0  0
  7 22  1  0  0  0  0
  7 23  1  0  0  0  0
  8 24  1  0  0  0  0
  9 25  1  0  0  0  0
  9 26  1  0  0  0  0
 11 27  1  0  0  0  0
 12 28  1  0  0  0  0
M  END
> <Name>
IA_109.cdx

> <SourceTag>
IA_109

> <Gold.Version>
5.2

> <Gold.Id.Protein>
6HGV|6HGV_protein|mol2

> <Gold.Goldscore.Fitness>
43.7820

> <Gold.Goldscore.Internal.Vdw>
-1.5369

> <Gold.Goldscore.Internal.Torsion>
-1.1976

> <Gold.Goldscore.External.Vdw>
28.0286

> <Gold.Goldscore.Internal.HBond>
0.0000

> <Gold.Goldscore.External.HBond>
6.2021

> <Gold.Goldscore.Internal.Correction>
-1.7751

> <Gold.Goldscore.Hbonds>
donor molecule, donor type, donor heavy atom, donor atom, acceptor molecule, acceptor atom, score
      P1  H  1247  3847       L1    13  0.08
      L1  H    11    27       P1   853  0.70
      L1  H    12    28       P1   853  0.30

> <Gold.Goldscore.Internal.Vdw.Weighted>
-1.5369

> <Gold.Goldscore.Internal.Torsion.Weighted>
-1.1976

> <Gold.Goldscore.External.Vdw.Weighted>
38.5394

> <Gold.Goldscore.Internal.HBond.Weighted>
0.0000

> <Gold.Goldscore.External.HBond.Weighted>
6.2021

> <Gold.Goldscore.Internal.Correction.Weighted>
-1.7751

> <Gold.Protein.RotatedTorsions>
[ 3781 1176 1175 1172 ] final    2.20 input   60.00 | X-H torsion
[ 3847 1247 1246 1244 ] final  145.33 input   60.00 | X-H torsion
[ 4507 1931 1930 1928 ] final  115.46 input   60.00 | X-H torsion
[ 3677 1070 1069 1066 ] final  -75.95 input   60.00 | X-H torsion
[ 3525  925  924  922 ] final  157.81 input   59.99 | X-H torsion
[ 4531 1957 1955 1953 ] final  -35.08 input   60.00 | X-H torsion

> <Gold.Protein.ActiveResidues>
 PHE267  PRO268  MET310  ASP335  TRP336  MET339  TYR343  THR360  PRO361  ILE363 
 PRO371  SER374  ILE375  ASN378  PHE381  TYR383  GLN384  PHE387  LEU408  LEU417 
 MET419  LEU428  TYR466  MET469  ASN472  ASP496  VAL498  LEU499  MET503  HIS524 
 TRP525 

> <Gold.Protein.RotatedAtoms>
   -2.0845  -30.2737  -29.7285 H   0  0  0  0  0  0  0  0  0  0  0  0  # atno 3525 bound_to 925 
  -12.0934  -23.8444  -31.2920 H   0  0  0  0  0  0  0  0  0  0  0  0  # atno 3677 bound_to 1070
  -10.8081  -37.2540  -33.6392 H   0  0  0  0  0  0  0  0  0  0  0  0  # atno 3781 bound_to 1176
  -14.3580  -27.9026  -37.8974 H   0  0  0  0  0  0  0  0  0  0  0  0  # atno 3847 bound_to 1247
  -12.4371  -23.9734  -39.2944 H   0  0  0  0  0  0  0  0  0  0  0  0  # atno 4507 bound_to 1931
   -2.3765  -32.2176  -36.7755 H   0  0  0  0  0  0  0  0  0  0  0  0  # atno 4531 bound_to 1957
   -9.4869  -36.3151  -33.7843 LP  0  0  0  0  0  0  0  0  0  0  0  0  # atno 5205 bound_to 1176
   -9.8103  -37.0613  -32.3682 LP  0  0  0  0  0  0  0  0  0  0  0  0  # atno 5206 bound_to 1176
  -15.3556  -28.9214  -37.1134 LP  0  0  0  0  0  0  0  0  0  0  0  0  # atno 5215 bound_to 1247
  -15.8567  -27.4144  -37.4932 LP  0  0  0  0  0  0  0  0  0  0  0  0  # atno 5216 bound_to 1247
  -13.3074  -25.3392  -39.1353 LP  0  0  0  0  0  0  0  0  0  0  0  0  # atno 5217 bound_to 1931
  -13.4548  -24.4258  -40.4809 LP  0  0  0  0  0  0  0  0  0  0  0  0  # atno 5218 bound_to 1931
  -11.1394  -22.5527  -31.0284 LP  0  0  0  0  0  0  0  0  0  0  0  0  # atno 5224 bound_to 1070
  -12.6203  -22.6306  -30.3447 LP  0  0  0  0  0  0  0  0  0  0  0  0  # atno 5225 bound_to 1070

$$$$
IA_152.cdx|SeH_inactivess_minimized|sdf|53|dock5
  -GOLD-   4172119483D 1   1.00000     0.00000

 20 21  0  0  0  0  0  0  0  0  1 V2000
   -8.4589  -32.7212  -35.9432 C   0  0  0  0  0  0  0  0  0  0  0  0
   -7.1738  -32.1529  -35.8266 C   0  0  0  0  0  0  0  0  0  0  0  0
   -9.6058  -31.9639  -35.6881 C   0  0  0  0  0  0  0  0  0  0  0  0
   -7.0100  -30.8161  -35.4528 C   0  0  0  0  0  0  0  0  0  0  0  0
   -9.4208  -30.6469  -35.3204 C   0  0  0  0  0  0  0  0  0  0  0  0
   -8.1553  -30.0874  -35.2057 C   0  0  0  0  0  0  0  0  0  0  0  0
  -10.4073  -29.6156  -34.9943 C   0  0  0  0  0  0  0  0  0  0  0  0
   -8.3096  -28.6880  -34.8039 C   0  0  0  0  0  0  0  0  0  0  0  0
  -11.2107  -26.5775  -35.8112 C   0  0  0  0  0  0  0  0  0  0  0  0
   -9.6692  -28.4896  -34.7011 N   0  0  0  0  0  0  0  0  0  0  0  0
  -11.6103  -29.8009  -35.0049 O   0  0  0  0  0  0  0  0  0  0  0  0
   -7.3769  -27.9279  -34.6207 O   0  0  0  0  0  0  0  0  0  0  0  0
  -10.3588  -27.0201  -34.2618 S   0  0  0  0  0  0  0  0  0  0  0  0
  -12.9174  -27.1220  -35.7068 Cl  0  0  0  0  0  0  0  0  0  0  0  0
  -11.2052  -24.8079  -36.0672 Cl  0  0  0  0  0  0  0  0  0  0  0  0
  -10.4531  -27.3847  -37.2151 Cl  0  0  0  0  0  0  0  0  0  0  0  0
   -8.5566  -33.7637  -36.2353 H   0  0  0  0  0  0  0  0  0  0  0  0
   -6.2994  -32.7653  -36.0315 H   0  0  0  0  0  0  0  0  0  0  0  0
  -10.5930  -32.4011  -35.7787 H   0  0  0  0  0  0  0  0  0  0  0  0
   -6.0219  -30.3804  -35.3632 H   0  0  0  0  0  0  0  0  0  0  0  0
  1  2  2  0  0  0  0
  1  3  1  0  0  0  0
  2  4  1  0  0  0  0
  3  5  2  0  0  0  0
  4  6  2  0  0  0  0
  5  6  1  0  0  0  0
  5  7  1  0  0  0  0
  6  8  1  0  0  0  0
  7 10  1  0  0  0  0
  7 11  2  0  0  0  0
  8 10  1  0  0  0  0
  8 12  2  0  0  0  0
  9 13  1  0  0  0  0
  9 14  1  0  0  0  0
  9 15  1  0  0  0  0
  9 16  1  0  0  0  0
 10 13  1  0  0  0  0
  1 17  1  0  0  0  0
  2 18  1  0  0  0  0
  3 19  1  0  0  0  0
  4 20  1  0  0  0  0
M  END
> <Name>
IA_152.cdx

> <SourceTag>
IA_152

> <Gold.Version>
5.2

> <Gold.Id.Protein>
6HGV|6HGV_protein|mol2

> <Gold.Goldscore.Fitness>
42.1867

> <Gold.Goldscore.Internal.Vdw>
1.7630

> <Gold.Goldscore.Internal.Torsion>
-0.8762

> <Gold.Goldscore.External.Vdw>
31.2040

> <Gold.Goldscore.Internal.HBond>
0.0000

> <Gold.Goldscore.External.HBond>
0.3678

> <Gold.Goldscore.Internal.Correction>
1.9733

> <Gold.Goldscore.Hbonds>
donor molecule, donor type, donor heavy atom, donor atom, acceptor molecule, acceptor atom, score
      P1  H  1256  3854       L1    11  0.18

> <Gold.Goldscore.Internal.Vdw.Weighted>
1.7630

> <Gold.Goldscore.Internal.Torsion.Weighted>
-0.8762

> <Gold.Goldscore.External.Vdw.Weighted>
42.9055

> <Gold.Goldscore.Internal.HBond.Weighted>
0.0000

> <Gold.Goldscore.External.HBond.Weighted>
0.3678

> <Gold.Goldscore.Internal.Correction.Weighted>
1.9733

> <Gold.Protein.RotatedTorsions>
[ 3781 1176 1175 1172 ] final  176.69 input   60.00 | X-H torsion
[ 3847 1247 1246 1244 ] final   14.08 input   60.00 | X-H torsion
[ 4507 1931 1930 1928 ] final    7.14 input   60.00 | X-H torsion
[ 3677 1070 1069 1066 ] final -119.73 input   60.00 | X-H torsion
[ 3525  925  924  922 ] final  111.18 input   59.99 | X-H torsion
[ 4531 1957 1955 1953 ] final   14.66 input   60.00 | X-H torsion

> <Gold.Protein.ActiveResidues>
 PHE267  PRO268  MET310  ASP335  TRP336  MET339  TYR343  THR360  PRO361  ILE363 
 PRO371  SER374  ILE375  ASN378  PHE381  TYR383  GLN384  PHE387  LEU408  LEU417 
 MET419  LEU428  TYR466  MET469  ASN472  ASP496  VAL498  LEU499  MET503  HIS524 
 TRP525 

> <Gold.Protein.RotatedAtoms>
   -2.1819  -30.1647  -30.4550 H   0  0  0  0  0  0  0  0  0  0  0  0  # atno 3525 bound_to 925 
  -11.4663  -23.5820  -31.4509 H   0  0  0  0  0  0  0  0  0  0  0  0  # atno 3677 bound_to 1070
   -9.2854  -36.5468  -32.8150 H   0  0  0  0  0  0  0  0  0  0  0  0  # atno 3781 bound_to 1176
  -15.5204  -28.8459  -37.0803 H   0  0  0  0  0  0  0  0  0  0  0  0  # atno 3847 bound_to 1247
  -13.1805  -25.2663  -39.0120 H   0  0  0  0  0  0  0  0  0  0  0  0  # atno 4507 bound_to 1931
   -2.9922  -32.6964  -36.6667 H   0  0  0  0  0  0  0  0  0  0  0  0  # atno 4531 bound_to 1957
  -10.6410  -37.4471  -32.8179 LP  0  0  0  0  0  0  0  0  0  0  0  0  # atno 5205 bound_to 1176
  -10.1896  -36.6415  -34.1647 LP  0  0  0  0  0  0  0  0  0  0  0  0  # atno 5206 bound_to 1176
  -15.7308  -27.3122  -37.5817 LP  0  0  0  0  0  0  0  0  0  0  0  0  # atno 5215 bound_to 1247
  -14.3109  -28.0737  -37.8477 LP  0  0  0  0  0  0  0  0  0  0  0  0  # atno 5216 bound_to 1247
  -13.5487  -24.5892  -40.4452 LP  0  0  0  0  0  0  0  0  0  0  0  0  # atno 5217 bound_to 1931
  -12.4647  -23.8738  -39.4554 LP  0  0  0  0  0  0  0  0  0  0  0  0  # atno 5218 bound_to 1931
  -11.5748  -22.1933  -30.6097 LP  0  0  0  0  0  0  0  0  0  0  0  0  # atno 5224 bound_to 1070
  -12.8163  -23.2541  -30.6035 LP  0  0  0  0  0  0  0  0  0  0  0  0  # atno 5225 bound_to 1070

$$$$
IA_12|SeH_inactivess_minimized|sdf|22|dock10
  -GOLD-   4172119 13D 1   1.00000     0.00000

 67 69  0  0  0  0  0  0  0  0  1 V2000
  -14.6608  -25.1928  -37.1056 C   0  0  0  0  0  0  0  0  0  0  0  0
  -16.8303  -24.8232  -40.1457 C   0  0  0  0  0  0  0  0  0  0  0  0
   -7.5399  -29.5021  -34.3743 C   0  0  0  0  0  0  0  0  0  0  0  0
   -3.5495  -32.1547  -34.5076 C   0  0  0  0  0  0  0  0  0  0  0  0
   -4.9759  -34.1167  -33.8711 C   0  0  0  0  0  0  0  0  0  0  0  0
   -3.9730  -32.6651  -32.0889 C   0  0  0  0  0  0  0  0  0  0  0  0
   -6.0206  -32.0978  -34.9294 C   0  0  0  0  0  0  0  0  0  0  0  0
   -5.0165  -30.6447  -33.1455 C   0  0  0  0  0  0  0  0  0  0  0  0
   -6.4450  -32.6096  -32.5073 C   0  0  0  0  0  0  0  0  0  0  0  0
   -4.7728  -32.9972  -34.9063 C   0  0  0  0  0  0  0  0  0  0  0  0
   -3.7646  -31.5383  -33.1150 C   0  0  0  0  0  0  0  0  0  0  0  0
   -5.1986  -33.5107  -32.4749 C   0  0  0  0  0  0  0  0  0  0  0  0
   -6.2600  -31.4737  -33.5367 C   0  0  0  0  0  0  0  0  0  0  0  0
  -21.1816  -24.0638  -38.2420 C   0  0  0  0  0  0  0  0  0  0  0  0
  -13.1470  -25.3222  -37.0828 C   0  0  0  0  0  0  0  0  0  0  0  0
  -12.6176  -26.1622  -35.9211 C   0  0  0  0  0  0  0  0  0  0  0  0
  -11.1425  -26.5673  -36.0364 C   0  0  0  0  0  0  0  0  0  0  0  0
  -10.6465  -27.4079  -34.8551 C   0  0  0  0  0  0  0  0  0  0  0  0
  -17.0954  -23.3887  -38.0713 C   0  0  0  0  0  0  0  0  0  0  0  0
   -9.1461  -27.6790  -34.9219 C   0  0  0  0  0  0  0  0  0  0  0  0
  -18.5869  -23.1853  -38.3479 C   0  0  0  0  0  0  0  0  0  0  0  0
  -16.5330  -24.6901  -38.6594 C   0  0  2  0  0  0  0  0  0  0  0  0
  -15.1276  -24.8444  -38.3646 N   0  0  0  0  0  0  0  0  0  0  0  0
   -7.4324  -30.6268  -33.5625 N   0  0  0  0  0  0  0  0  0  0  0  0
   -8.7699  -28.8722  -34.2013 N   0  0  0  0  0  0  0  0  0  0  0  0
  -15.3689  -25.4041  -36.1247 O   0  0  0  0  0  0  0  0  0  0  0  0
  -17.0359  -25.8998  -40.6954 O   0  0  0  0  0  0  0  0  0  0  0  0
   -6.6642  -29.1126  -35.1457 O   0  0  0  0  0  0  0  0  0  0  0  0
  -16.7958  -23.6557  -40.8320 O   0  0  0  0  0  0  0  0  0  0  0  0
  -19.5575  -24.5261  -37.5982 S   0  0  0  0  0  0  0  0  0  0  0  0
   -2.6488  -32.7808  -34.5053 H   0  0  0  0  0  0  0  0  0  0  0  0
   -3.3839  -31.3614  -35.2468 H   0  0  0  0  0  0  0  0  0  0  0  0
   -5.8370  -34.7355  -34.1522 H   0  0  0  0  0  0  0  0  0  0  0  0
   -4.1000  -34.7770  -33.8573 H   0  0  0  0  0  0  0  0  0  0  0  0
   -3.0798  -33.3001  -32.0432 H   0  0  0  0  0  0  0  0  0  0  0  0
   -4.1121  -32.2388  -31.0878 H   0  0  0  0  0  0  0  0  0  0  0  0
   -5.8964  -31.3095  -35.6836 H   0  0  0  0  0  0  0  0  0  0  0  0
   -6.8965  -32.6835  -35.2385 H   0  0  0  0  0  0  0  0  0  0  0  0
   -5.1652  -30.1783  -32.1627 H   0  0  0  0  0  0  0  0  0  0  0  0
   -4.8697  -29.8214  -33.8571 H   0  0  0  0  0  0  0  0  0  0  0  0
   -7.3310  -33.2079  -32.7570 H   0  0  0  0  0  0  0  0  0  0  0  0
   -6.6276  -32.1923  -31.5082 H   0  0  0  0  0  0  0  0  0  0  0  0
   -4.6138  -33.4349  -35.8982 H   0  0  0  0  0  0  0  0  0  0  0  0
   -2.8899  -30.9405  -32.8357 H   0  0  0  0  0  0  0  0  0  0  0  0
   -5.3405  -34.3126  -31.7418 H   0  0  0  0  0  0  0  0  0  0  0  0
  -21.4320  -23.0485  -37.9247 H   0  0  0  0  0  0  0  0  0  0  0  0
  -21.9407  -24.7529  -37.8635 H   0  0  0  0  0  0  0  0  0  0  0  0
  -21.1737  -24.1054  -39.3339 H   0  0  0  0  0  0  0  0  0  0  0  0
  -12.8580  -25.8052  -38.0247 H   0  0  0  0  0  0  0  0  0  0  0  0
  -12.6912  -24.3267  -37.0833 H   0  0  0  0  0  0  0  0  0  0  0  0
  -12.7538  -25.6127  -34.9813 H   0  0  0  0  0  0  0  0  0  0  0  0
  -13.2277  -27.0704  -35.8399 H   0  0  0  0  0  0  0  0  0  0  0  0
  -10.5450  -25.6488  -36.0953 H   0  0  0  0  0  0  0  0  0  0  0  0
  -10.9755  -27.1068  -36.9751 H   0  0  0  0  0  0  0  0  0  0  0  0
  -10.8638  -26.8789  -33.9196 H   0  0  0  0  0  0  0  0  0  0  0  0
  -11.1827  -28.3631  -34.8225 H   0  0  0  0  0  0  0  0  0  0  0  0
  -16.5299  -22.5442  -38.4876 H   0  0  0  0  0  0  0  0  0  0  0  0
  -16.9205  -23.3867  -36.9873 H   0  0  0  0  0  0  0  0  0  0  0  0
   -8.8075  -27.7907  -35.9567 H   0  0  0  0  0  0  0  0  0  0  0  0
   -8.5955  -26.8467  -34.4720 H   0  0  0  0  0  0  0  0  0  0  0  0
  -18.9396  -22.2383  -37.9289 H   0  0  0  0  0  0  0  0  0  0  0  0
  -18.7917  -23.1787  -39.4225 H   0  0  0  0  0  0  0  0  0  0  0  0
  -17.0272  -25.5421  -38.1768 H   0  0  0  0  0  0  0  0  0  0  0  0
  -14.4633  -24.6530  -39.1089 H   0  0  0  0  0  0  0  0  0  0  0  0
   -8.2132  -30.8641  -32.9601 H   0  0  0  0  0  0  0  0  0  0  0  0
   -9.4502  -29.2920  -33.5756 H   0  0  0  0  0  0  0  0  0  0  0  0
  -16.9646  -23.7364  -41.7942 H   0  0  0  0  0  0  0  0  0  0  0  0
  1 15  1  0  0  0  0
  1 23  1  0  0  0  0
  1 26  2  0  0  0  0
  2 22  1  0  0  0  0
  2 27  2  0  0  0  0
  2 29  1  0  0  0  0
  3 24  1  0  0  0  0
  3 25  1  0  0  0  0
  3 28  2  0  0  0  0
  4 10  1  0  0  0  0
  4 11  1  0  0  0  0
  5 10  1  0  0  0  0
  5 12  1  0  0  0  0
  6 11  1  0  0  0  0
  6 12  1  0  0  0  0
  7 10  1  0  0  0  0
  7 13  1  0  0  0  0
  8 11  1  0  0  0  0
  8 13  1  0  0  0  0
  9 12  1  0  0  0  0
  9 13  1  0  0  0  0
 13 24  1  0  0  0  0
 14 30  1  0  0  0  0
 15 16  1  0  0  0  0
 16 17  1  0  0  0  0
 17 18  1  0  0  0  0
 18 20  1  0  0  0  0
 19 21  1  0  0  0  0
 19 22  1  0  0  0  0
 20 25  1  0  0  0  0
 21 30  1  0  0  0  0
 22 23  1  0  0  0  0
  4 31  1  0  0  0  0
  4 32  1  0  0  0  0
  5 33  1  0  0  0  0
  5 34  1  0  0  0  0
  6 35  1  0  0  0  0
  6 36  1  0  0  0  0
  7 37  1  0  0  0  0
  7 38  1  0  0  0  0
  8 39  1  0  0  0  0
  8 40  1  0  0  0  0
  9 41  1  0  0  0  0
  9 42  1  0  0  0  0
 10 43  1  0  0  0  0
 11 44  1  0  0  0  0
 12 45  1  0  0  0  0
 14 46  1  0  0  0  0
 14 47  1  0  0  0  0
 14 48  1  0  0  0  0
 15 49  1  0  0  0  0
 15 50  1  0  0  0  0
 16 51  1  0  0  0  0
 16 52  1  0  0  0  0
 17 53  1  0  0  0  0
 17 54  1  0  0  0  0
 18 55  1  0  0  0  0
 18 56  1  0  0  0  0
 19 57  1  0  0  0  0
 19 58  1  0  0  0  0
 20 59  1  0  0  0  0
 20 60  1  0  0  0  0
 21 61  1  0  0  0  0
 21 62  1  0  0  0  0
 22 63  1  0  0  0  0
 23 64  1  0  0  0  0
 24 65  1  0  0  0  0
 25 66  1  0  0  0  0
 29 67  1  0  0  0  0
M  END
> <Name>
IA_12

> <SourceTag>
IA_12

> <Gold.Version>
5.2

> <Gold.Id.Protein>
6HGV|6HGV_protein|mol2

> <Gold.Goldscore.Fitness>
77.1610

> <Gold.Goldscore.Internal.Vdw>
-3.2096

> <Gold.Goldscore.Internal.Torsion>
-4.7149

> <Gold.Goldscore.External.Vdw>
56.6278

> <Gold.Goldscore.Internal.HBond>
0.0000

> <Gold.Goldscore.External.HBond>
1.0051

> <Gold.Goldscore.Internal.Correction>
-6.2172

> <Gold.Goldscore.Hbonds>
donor molecule, donor type, donor heavy atom, donor atom, acceptor molecule, acceptor atom, score
      L1  H    23    64       P1  1931  0.50

> <Gold.Goldscore.Internal.Vdw.Weighted>
-3.2096

> <Gold.Goldscore.Internal.Torsion.Weighted>
-4.7149

> <Gold.Goldscore.External.Vdw.Weighted>
77.8632

> <Gold.Goldscore.Internal.HBond.Weighted>
0.0000

> <Gold.Goldscore.External.HBond.Weighted>
1.0051

> <Gold.Goldscore.Internal.Correction.Weighted>
-6.2172

> <Gold.Protein.RotatedTorsions>
[ 3781 1176 1175 1172 ] final -141.21 input   60.00 | X-H torsion
[ 3847 1247 1246 1244 ] final  -65.62 input   60.00 | X-H torsion
[ 4507 1931 1930 1928 ] final  150.35 input   60.00 | X-H torsion
[ 3677 1070 1069 1066 ] final  -97.84 input   60.00 | X-H torsion
[ 3525  925  924  922 ] final    8.57 input   59.99 | X-H torsion
[ 4531 1957 1955 1953 ] final  127.24 input   60.00 | X-H torsion

> <Gold.Protein.ActiveResidues>
 PHE267  PRO268  MET310  ASP335  TRP336  MET339  TYR343  THR360  PRO361  ILE363 
 PRO371  SER374  ILE375  ASN378  PHE381  TYR383  GLN384  PHE387  LEU408  LEU417 
 MET419  LEU428  TYR466  MET469  ASN472  ASP496  VAL498  LEU499  MET503  HIS524 
 TRP525 

> <Gold.Protein.RotatedAtoms>
   -3.5120  -29.5731  -30.5833 H   0  0  0  0  0  0  0  0  0  0  0  0  # atno 3525 bound_to 925 
  -11.7665  -23.7677  -31.4091 H   0  0  0  0  0  0  0  0  0  0  0  0  # atno 3677 bound_to 1070
   -9.3056  -36.3229  -33.4489 H   0  0  0  0  0  0  0  0  0  0  0  0  # atno 3781 bound_to 1176
  -16.0489  -27.7870  -37.2780 H   0  0  0  0  0  0  0  0  0  0  0  0  # atno 3847 bound_to 1247
  -12.5981  -23.7827  -39.7973 H   0  0  0  0  0  0  0  0  0  0  0  0  # atno 4507 bound_to 1931
   -2.2640  -34.0638  -36.8288 H   0  0  0  0  0  0  0  0  0  0  0  0  # atno 4531 bound_to 1957
  -10.1337  -37.2617  -32.4092 LP  0  0  0  0  0  0  0  0  0  0  0  0  # atno 5205 bound_to 1176
  -10.6766  -37.0524  -33.9350 LP  0  0  0  0  0  0  0  0  0  0  0  0  # atno 5206 bound_to 1176
  -14.5970  -27.5005  -37.9547 LP  0  0  0  0  0  0  0  0  0  0  0  0  # atno 5215 bound_to 1247
  -14.9124  -28.9517  -37.2758 LP  0  0  0  0  0  0  0  0  0  0  0  0  # atno 5216 bound_to 1247
  -12.9269  -25.0511  -38.8323 LP  0  0  0  0  0  0  0  0  0  0  0  0  # atno 5217 bound_to 1931
  -13.6731  -24.9060  -40.2776 LP  0  0  0  0  0  0  0  0  0  0  0  0  # atno 5218 bound_to 1931
  -11.3109  -22.3234  -30.8135 LP  0  0  0  0  0  0  0  0  0  0  0  0  # atno 5224 bound_to 1070
  -12.7779  -22.9371  -30.4418 LP  0  0  0  0  0  0  0  0  0  0  0  0  # atno 5225 bound_to 1070

$$$$
IA_88.cdx|SeH_inactivess_minimized|sdf|166|dock3
  -GOLD-   4172122313D 1   1.00000     0.00000

 44 43  0  0  0  0  0  0  0  0  1 V2000
   -9.1531  -28.8210  -35.0856 C   0  0  0  0  0  0  0  0  0  0  0  0
  -22.1913  -23.2718  -39.0188 C   0  0  0  0  0  0  0  0  0  0  0  0
  -21.3181  -24.1164  -38.1047 C   0  0  0  0  0  0  0  0  0  0  0  0
  -19.8336  -23.8077  -38.3053 C   0  0  0  0  0  0  0  0  0  0  0  0
  -18.9598  -24.6819  -37.4030 C   0  0  0  0  0  0  0  0  0  0  0  0
  -17.4584  -24.4780  -37.6268 C   0  0  0  0  0  0  0  0  0  0  0  0
  -16.5848  -25.2530  -36.6367 C   0  0  0  0  0  0  0  0  0  0  0  0
  -15.0990  -25.0917  -36.9698 C   0  0  0  0  0  0  0  0  0  0  0  0
  -14.1712  -25.7813  -35.9653 C   0  0  0  0  0  0  0  0  0  0  0  0
  -12.6863  -25.5311  -36.2377 C   0  0  0  0  0  0  0  0  0  0  0  0
  -11.8180  -26.0368  -35.0823 C   0  0  0  0  0  0  0  0  0  0  0  0
  -10.3276  -25.9050  -35.4103 C   0  0  0  0  0  0  0  0  0  0  0  0
   -9.4195  -26.4641  -34.3137 C   0  0  0  0  0  0  0  0  0  0  0  0
   -9.4314  -30.1174  -34.6911 N   0  0  0  0  0  0  0  0  0  0  0  0
   -9.5862  -27.9030  -34.1491 N   0  0  0  0  0  0  0  0  0  0  0  0
   -8.5890  -28.5533  -36.1451 O   0  0  0  0  0  0  0  0  0  0  0  0
  -23.2490  -23.4878  -38.8384 H   0  0  0  0  0  0  0  0  0  0  0  0
  -22.0276  -22.2041  -38.8413 H   0  0  0  0  0  0  0  0  0  0  0  0
  -21.9760  -23.4826  -40.0711 H   0  0  0  0  0  0  0  0  0  0  0  0
  -21.5090  -25.1771  -38.3053 H   0  0  0  0  0  0  0  0  0  0  0  0
  -21.5997  -23.9275  -37.0623 H   0  0  0  0  0  0  0  0  0  0  0  0
  -19.6564  -22.7484  -38.0886 H   0  0  0  0  0  0  0  0  0  0  0  0
  -19.5623  -23.9753  -39.3543 H   0  0  0  0  0  0  0  0  0  0  0  0
  -19.2043  -24.4897  -36.3512 H   0  0  0  0  0  0  0  0  0  0  0  0
  -19.1926  -25.7371  -37.5931 H   0  0  0  0  0  0  0  0  0  0  0  0
  -17.2211  -23.4086  -37.5731 H   0  0  0  0  0  0  0  0  0  0  0  0
  -17.2182  -24.8038  -38.6466 H   0  0  0  0  0  0  0  0  0  0  0  0
  -16.7642  -24.8945  -35.6172 H   0  0  0  0  0  0  0  0  0  0  0  0
  -16.8632  -26.3120  -36.6665 H   0  0  0  0  0  0  0  0  0  0  0  0
  -14.9010  -25.4776  -37.9772 H   0  0  0  0  0  0  0  0  0  0  0  0
  -14.8502  -24.0233  -36.9865 H   0  0  0  0  0  0  0  0  0  0  0  0
  -14.3707  -26.8597  -35.9609 H   0  0  0  0  0  0  0  0  0  0  0  0
  -14.4185  -25.4107  -34.9627 H   0  0  0  0  0  0  0  0  0  0  0  0
  -12.5150  -24.4577  -36.3831 H   0  0  0  0  0  0  0  0  0  0  0  0
  -12.3827  -26.0377  -37.1605 H   0  0  0  0  0  0  0  0  0  0  0  0
  -12.0448  -25.4641  -34.1749 H   0  0  0  0  0  0  0  0  0  0  0  0
  -12.0668  -27.0843  -34.8755 H   0  0  0  0  0  0  0  0  0  0  0  0
  -10.1123  -26.4075  -36.3619 H   0  0  0  0  0  0  0  0  0  0  0  0
  -10.0829  -24.8450  -35.5529 H   0  0  0  0  0  0  0  0  0  0  0  0
   -8.3752  -26.2535  -34.5692 H   0  0  0  0  0  0  0  0  0  0  0  0
   -9.6308  -25.9651  -33.3618 H   0  0  0  0  0  0  0  0  0  0  0  0
   -9.1779  -30.9149  -35.2644 H   0  0  0  0  0  0  0  0  0  0  0  0
   -9.8985  -30.3097  -33.8112 H   0  0  0  0  0  0  0  0  0  0  0  0
  -10.0384  -28.2434  -33.3137 H   0  0  0  0  0  0  0  0  0  0  0  0
  1 14  1  0  0  0  0
  1 15  1  0  0  0  0
  1 16  2  0  0  0  0
  2  3  1  0  0  0  0
  3  4  1  0  0  0  0
  4  5  1  0  0  0  0
  5  6  1  0  0  0  0
  6  7  1  0  0  0  0
  7  8  1  0  0  0  0
  8  9  1  0  0  0  0
  9 10  1  0  0  0  0
 10 11  1  0  0  0  0
 11 12  1  0  0  0  0
 12 13  1  0  0  0  0
 13 15  1  0  0  0  0
  2 17  1  0  0  0  0
  2 18  1  0  0  0  0
  2 19  1  0  0  0  0
  3 20  1  0  0  0  0
  3 21  1  0  0  0  0
  4 22  1  0  0  0  0
  4 23  1  0  0  0  0
  5 24  1  0  0  0  0
  5 25  1  0  0  0  0
  6 26  1  0  0  0  0
  6 27  1  0  0  0  0
  7 28  1  0  0  0  0
  7 29  1  0  0  0  0
  8 30  1  0  0  0  0
  8 31  1  0  0  0  0
  9 32  1  0  0  0  0
  9 33  1  0  0  0  0
 10 34  1  0  0  0  0
 10 35  1  0  0  0  0
 11 36  1  0  0  0  0
 11 37  1  0  0  0  0
 12 38  1  0  0  0  0
 12 39  1  0  0  0  0
 13 40  1  0  0  0  0
 13 41  1  0  0  0  0
 14 42  1  0  0  0  0
 14 43  1  0  0  0  0
 15 44  1  0  0  0  0
M  END
> <Name>
IA_88.cdx

> <SourceTag>
IA_88

> <Gold.Version>
5.2

> <Gold.Id.Protein>
6HGV|6HGV_protein|mol2

> <Gold.Goldscore.Fitness>
53.8943

> <Gold.Goldscore.Internal.Vdw>
-3.1122

> <Gold.Goldscore.Internal.Torsion>
-1.1358

> <Gold.Goldscore.External.Vdw>
39.4200

> <Gold.Goldscore.Internal.HBond>
0.0000

> <Gold.Goldscore.External.HBond>
0.0000

> <Gold.Goldscore.Internal.Correction>
-3.9398

> <Gold.Goldscore.Internal.Vdw.Weighted>
-3.1122

> <Gold.Goldscore.Internal.Torsion.Weighted>
-1.1358

> <Gold.Goldscore.External.Vdw.Weighted>
54.2025

> <Gold.Goldscore.Internal.HBond.Weighted>
0.0000

> <Gold.Goldscore.External.HBond.Weighted>
0.0000

> <Gold.Goldscore.Internal.Correction.Weighted>
-3.9398

> <Gold.Protein.RotatedTorsions>
[ 3781 1176 1175 1172 ] final  127.99 input   60.00 | X-H torsion
[ 3847 1247 1246 1244 ] final   95.22 input   60.00 | X-H torsion
[ 4507 1931 1930 1928 ] final   92.35 input   60.00 | X-H torsion
[ 3677 1070 1069 1066 ] final -113.44 input   60.00 | X-H torsion
[ 3525  925  924  922 ] final   21.76 input   59.99 | X-H torsion
[ 4531 1957 1955 1953 ] final  153.91 input   60.00 | X-H torsion

> <Gold.Protein.ActiveResidues>
 PHE267  PRO268  MET310  ASP335  TRP336  MET339  TYR343  THR360  PRO361  ILE363 
 PRO371  SER374  ILE375  ASN378  PHE381  TYR383  GLN384  PHE387  LEU408  LEU417 
 MET419  LEU428  TYR466  MET469  ASN472  ASP496  VAL498  LEU499  MET503  HIS524 
 TRP525 

> <Gold.Protein.RotatedAtoms>
   -3.3557  -29.6288  -30.7200 H   0  0  0  0  0  0  0  0  0  0  0  0  # atno 3525 bound_to 925 
  -11.5471  -23.6452  -31.4472 H   0  0  0  0  0  0  0  0  0  0  0  0  # atno 3677 bound_to 1070
   -9.7350  -37.0067  -32.3880 H   0  0  0  0  0  0  0  0  0  0  0  0  # atno 3781 bound_to 1176
  -14.4355  -28.6290  -37.5891 H   0  0  0  0  0  0  0  0  0  0  0  0  # atno 3847 bound_to 1247
  -12.4542  -24.2276  -39.0191 H   0  0  0  0  0  0  0  0  0  0  0  0  # atno 4507 bound_to 1931
   -1.8438  -34.0020  -36.9076 H   0  0  0  0  0  0  0  0  0  0  0  0  # atno 4531 bound_to 1957
  -10.8297  -37.2962  -33.5568 LP  0  0  0  0  0  0  0  0  0  0  0  0  # atno 5205 bound_to 1176
   -9.5482  -36.3293  -33.8557 LP  0  0  0  0  0  0  0  0  0  0  0  0  # atno 5206 bound_to 1176
  -15.9623  -28.4038  -37.0733 LP  0  0  0  0  0  0  0  0  0  0  0  0  # atno 5215 bound_to 1247
  -15.1719  -27.2004  -37.8438 LP  0  0  0  0  0  0  0  0  0  0  0  0  # atno 5216 bound_to 1247
  -13.5192  -25.3818  -39.4452 LP  0  0  0  0  0  0  0  0  0  0  0  0  # atno 5217 bound_to 1931
  -13.2257  -24.1272  -40.4484 LP  0  0  0  0  0  0  0  0  0  0  0  0  # atno 5218 bound_to 1931
  -11.4917  -22.2191  -30.6653 LP  0  0  0  0  0  0  0  0  0  0  0  0  # atno 5224 bound_to 1070
  -12.8181  -23.1648  -30.5517 LP  0  0  0  0  0  0  0  0  0  0  0  0  # atno 5225 bound_to 1070

$$$$
IA_179.cdx|SeH_inactivess_minimized|sdf|80|dock4
  -GOLD-   4172120223D 1   1.00000     0.00000

 12 12  0  0  0  0  0  0  0  0  1 V2000
  -11.6549  -25.4723  -36.2181 C   0  0  0  0  0  0  0  0  0  0  0  0
  -10.7849  -25.3013  -34.0398 C   0  0  0  0  0  0  0  0  0  0  0  0
  -10.0526  -26.4121  -34.7756 C   0  0  0  0  0  0  0  0  0  0  0  0
  -11.7929  -24.8546  -34.9668 N   0  0  0  0  0  0  0  0  0  0  0  0
  -10.5901  -26.3784  -36.1117 N   0  0  0  0  0  0  0  0  0  0  0  0
  -12.3342  -25.2607  -37.2134 O   0  0  0  0  0  0  0  0  0  0  0  0
  -11.2606  -25.6479  -33.1184 H   0  0  0  0  0  0  0  0  0  0  0  0
  -10.1270  -24.4573  -33.8126 H   0  0  0  0  0  0  0  0  0  0  0  0
   -8.9715  -26.2540  -34.8101 H   0  0  0  0  0  0  0  0  0  0  0  0
  -10.2617  -27.3958  -34.3448 H   0  0  0  0  0  0  0  0  0  0  0  0
  -12.4876  -24.1440  -34.7606 H   0  0  0  0  0  0  0  0  0  0  0  0
  -10.2740  -26.9712  -36.8724 H   0  0  0  0  0  0  0  0  0  0  0  0
  1  4  1  0  0  0  0
  1  5  1  0  0  0  0
  1  6  2  0  0  0  0
  2  3  1  0  0  0  0
  2  4  1  0  0  0  0
  3  5  1  0  0  0  0
  2  7  1  0  0  0  0
  2  8  1  0  0  0  0
  3  9  1  0  0  0  0
  3 10  1  0  0  0  0
  4 11  1  0  0  0  0
  5 12  1  0  0  0  0
M  END
> <Name>
IA_179.cdx

> <SourceTag>
IA_179

> <Gold.Version>
5.2

> <Gold.Id.Protein>
6HGV|6HGV_protein|mol2

> <Gold.Goldscore.Fitness>
26.9261

> <Gold.Goldscore.Internal.Vdw>
-0.0000

> <Gold.Goldscore.Internal.Torsion>
-0.0000

> <Gold.Goldscore.External.Vdw>
17.2563

> <Gold.Goldscore.Internal.HBond>
0.0000

> <Gold.Goldscore.External.HBond>
3.1986

> <Gold.Goldscore.Internal.Correction>
0.0000

> <Gold.Goldscore.Hbonds>
donor molecule, donor type, donor heavy atom, donor atom, acceptor molecule, acceptor atom, score
      P1  H  1931  4507       L1     6  1.00
      L1  H     4    11       P1   853  0.20

> <Gold.Goldscore.Internal.Vdw.Weighted>
-0.0000

> <Gold.Goldscore.Internal.Torsion.Weighted>
-0.0000

> <Gold.Goldscore.External.Vdw.Weighted>
23.7274

> <Gold.Goldscore.Internal.HBond.Weighted>
0.0000

> <Gold.Goldscore.External.HBond.Weighted>
3.1986

> <Gold.Goldscore.Internal.Correction.Weighted>
0.0000

> <Gold.Protein.RotatedTorsions>
[ 3781 1176 1175 1172 ] final    6.89 input   60.00 | X-H torsion
[ 3847 1247 1246 1244 ] final  150.45 input   60.00 | X-H torsion
[ 4507 1931 1930 1928 ] final   47.06 input   60.00 | X-H torsion
[ 3677 1070 1069 1066 ] final -146.15 input   60.00 | X-H torsion
[ 3525  925  924  922 ] final   77.83 input   59.99 | X-H torsion
[ 4531 1957 1955 1953 ] final  151.17 input   60.00 | X-H torsion

> <Gold.Protein.ActiveResidues>
 PHE267  PRO268  MET310  ASP335  TRP336  MET339  TYR343  THR360  PRO361  ILE363 
 PRO371  SER374  ILE375  ASN378  PHE381  TYR383  GLN384  PHE387  LEU408  LEU417 
 MET419  LEU428  TYR466  MET469  ASN472  ASP496  VAL498  LEU499  MET503  HIS524 
 TRP525 

> <Gold.Protein.RotatedAtoms>
   -2.5494  -29.9732  -30.7968 H   0  0  0  0  0  0  0  0  0  0  0  0  # atno 3525 bound_to 925 
  -11.2002  -23.2519  -31.3937 H   0  0  0  0  0  0  0  0  0  0  0  0  # atno 3677 bound_to 1070
  -10.8207  -37.2877  -33.5715 H   0  0  0  0  0  0  0  0  0  0  0  0  # atno 3781 bound_to 1176
  -14.3869  -27.8262  -37.9153 H   0  0  0  0  0  0  0  0  0  0  0  0  # atno 3847 bound_to 1247
  -12.7545  -24.8429  -38.7935 H   0  0  0  0  0  0  0  0  0  0  0  0  # atno 4507 bound_to 1931
   -1.8851  -34.0174  -36.9000 H   0  0  0  0  0  0  0  0  0  0  0  0  # atno 4531 bound_to 1957
   -9.5362  -36.3262  -33.8426 LP  0  0  0  0  0  0  0  0  0  0  0  0  # atno 5205 bound_to 1176
   -9.7484  -37.0163  -32.3780 LP  0  0  0  0  0  0  0  0  0  0  0  0  # atno 5206 bound_to 1176
  -15.2774  -28.9431  -37.1358 LP  0  0  0  0  0  0  0  0  0  0  0  0  # atno 5215 bound_to 1247
  -15.9058  -27.4696  -37.4528 LP  0  0  0  0  0  0  0  0  0  0  0  0  # atno 5216 bound_to 1247
  -13.7023  -25.1037  -40.0903 LP  0  0  0  0  0  0  0  0  0  0  0  0  # atno 5217 bound_to 1931
  -12.7402  -23.7856  -40.0304 LP  0  0  0  0  0  0  0  0  0  0  0  0  # atno 5218 bound_to 1931
  -11.9616  -22.1937  -30.4197 LP  0  0  0  0  0  0  0  0  0  0  0  0  # atno 5224 bound_to 1070
  -12.6975  -23.5862  -30.8510 LP  0  0  0  0  0  0  0  0  0  0  0  0  # atno 5225 bound_to 1070

$$$$
IA_85.cdx|SeH_inactivess_minimized|sdf|163|dock3
  -GOLD-   4172122253D 1   1.00000     0.00000

 38 37  0  0  0  0  0  0  0  0  1 V2000
  -15.4143  -25.4660  -36.5288 C   0  0  0  0  0  0  0  0  0  0  0  0
   -4.1150  -31.9487  -34.8359 C   0  0  0  0  0  0  0  0  0  0  0  0
   -4.8510  -30.7410  -34.2777 C   0  0  0  0  0  0  0  0  0  0  0  0
   -6.1530  -30.4787  -35.0358 C   0  0  0  0  0  0  0  0  0  0  0  0
   -6.8882  -29.2625  -34.4690 C   0  0  0  0  0  0  0  0  0  0  0  0
   -8.1746  -28.9189  -35.2264 C   0  0  0  0  0  0  0  0  0  0  0  0
   -8.9538  -27.7080  -34.7022 C   0  0  0  0  0  0  0  0  0  0  0  0
  -10.1608  -27.3427  -35.5694 C   0  0  0  0  0  0  0  0  0  0  0  0
  -10.7565  -25.9719  -35.2304 C   0  0  0  0  0  0  0  0  0  0  0  0
  -11.7764  -25.4828  -36.2641 C   0  0  0  0  0  0  0  0  0  0  0  0
  -13.0770  -26.2800  -36.2195 C   0  0  0  0  0  0  0  0  0  0  0  0
  -16.2261  -24.8685  -37.4763 N   0  0  0  0  0  0  0  0  0  0  0  0
  -14.1210  -25.6752  -37.0003 N   0  0  0  0  0  0  0  0  0  0  0  0
  -15.8126  -25.7686  -35.4053 O   0  0  0  0  0  0  0  0  0  0  0  0
   -3.1733  -32.1152  -34.3032 H   0  0  0  0  0  0  0  0  0  0  0  0
   -4.7241  -32.8540  -34.7483 H   0  0  0  0  0  0  0  0  0  0  0  0
   -3.8842  -31.7958  -35.8948 H   0  0  0  0  0  0  0  0  0  0  0  0
   -5.0654  -30.9102  -33.2160 H   0  0  0  0  0  0  0  0  0  0  0  0
   -4.1995  -29.8617  -34.3414 H   0  0  0  0  0  0  0  0  0  0  0  0
   -6.7995  -31.3623  -34.9721 H   0  0  0  0  0  0  0  0  0  0  0  0
   -5.9234  -30.3190  -36.0954 H   0  0  0  0  0  0  0  0  0  0  0  0
   -6.2175  -28.3956  -34.4551 H   0  0  0  0  0  0  0  0  0  0  0  0
   -7.1548  -29.4605  -33.4230 H   0  0  0  0  0  0  0  0  0  0  0  0
   -7.9287  -28.7415  -36.2809 H   0  0  0  0  0  0  0  0  0  0  0  0
   -8.8315  -29.7976  -35.2085 H   0  0  0  0  0  0  0  0  0  0  0  0
   -8.2666  -26.8535  -34.6645 H   0  0  0  0  0  0  0  0  0  0  0  0
   -9.2694  -27.8950  -33.6704 H   0  0  0  0  0  0  0  0  0  0  0  0
   -9.8556  -27.3319  -36.6230 H   0  0  0  0  0  0  0  0  0  0  0  0
  -10.9414  -28.1056  -35.4722 H   0  0  0  0  0  0  0  0  0  0  0  0
  -11.2167  -26.0111  -34.2360 H   0  0  0  0  0  0  0  0  0  0  0  0
   -9.9339  -25.2486  -35.1695 H   0  0  0  0  0  0  0  0  0  0  0  0
  -11.3495  -25.5441  -37.2715 H   0  0  0  0  0  0  0  0  0  0  0  0
  -12.0068  -24.4279  -36.0722 H   0  0  0  0  0  0  0  0  0  0  0  0
  -13.4437  -26.3424  -35.1902 H   0  0  0  0  0  0  0  0  0  0  0  0
  -12.9280  -27.2985  -36.5916 H   0  0  0  0  0  0  0  0  0  0  0  0
  -17.1975  -24.6492  -37.2838 H   0  0  0  0  0  0  0  0  0  0  0  0
  -15.8713  -24.6295  -38.3962 H   0  0  0  0  0  0  0  0  0  0  0  0
  -13.9028  -25.3834  -37.9517 H   0  0  0  0  0  0  0  0  0  0  0  0
  1 12  1  0  0  0  0
  1 13  1  0  0  0  0
  1 14  2  0  0  0  0
  2  3  1  0  0  0  0
  3  4  1  0  0  0  0
  4  5  1  0  0  0  0
  5  6  1  0  0  0  0
  6  7  1  0  0  0  0
  7  8  1  0  0  0  0
  8  9  1  0  0  0  0
  9 10  1  0  0  0  0
 10 11  1  0  0  0  0
 11 13  1  0  0  0  0
  2 15  1  0  0  0  0
  2 16  1  0  0  0  0
  2 17  1  0  0  0  0
  3 18  1  0  0  0  0
  3 19  1  0  0  0  0
  4 20  1  0  0  0  0
  4 21  1  0  0  0  0
  5 22  1  0  0  0  0
  5 23  1  0  0  0  0
  6 24  1  0  0  0  0
  6 25  1  0  0  0  0
  7 26  1  0  0  0  0
  7 27  1  0  0  0  0
  8 28  1  0  0  0  0
  8 29  1  0  0  0  0
  9 30  1  0  0  0  0
  9 31  1  0  0  0  0
 10 32  1  0  0  0  0
 10 33  1  0  0  0  0
 11 34  1  0  0  0  0
 11 35  1  0  0  0  0
 12 36  1  0  0  0  0
 12 37  1  0  0  0  0
 13 38  1  0  0  0  0
M  END
> <Name>
IA_85.cdx

> <SourceTag>
IA_85

> <Gold.Version>
5.2

> <Gold.Id.Protein>
6HGV|6HGV_protein|mol2

> <Gold.Goldscore.Fitness>
49.2272

> <Gold.Goldscore.Internal.Vdw>
-3.7204

> <Gold.Goldscore.Internal.Torsion>
-1.5519

> <Gold.Goldscore.External.Vdw>
36.3279

> <Gold.Goldscore.Internal.HBond>
0.0000

> <Gold.Goldscore.External.HBond>
1.5250

> <Gold.Goldscore.Internal.Correction>
-3.0236

> <Gold.Goldscore.Hbonds>
donor molecule, donor type, donor heavy atom, donor atom, acceptor molecule, acceptor atom, score
      L1  H    13    38       P1  1931  0.76

> <Gold.Goldscore.Internal.Vdw.Weighted>
-3.7204

> <Gold.Goldscore.Internal.Torsion.Weighted>
-1.5519

> <Gold.Goldscore.External.Vdw.Weighted>
49.9509

> <Gold.Goldscore.Internal.HBond.Weighted>
0.0000

> <Gold.Goldscore.External.HBond.Weighted>
1.5250

> <Gold.Goldscore.Internal.Correction.Weighted>
-3.0236

> <Gold.Protein.RotatedTorsions>
[ 3781 1176 1175 1172 ] final -124.70 input   60.00 | X-H torsion
[ 3847 1247 1246 1244 ] final  -32.19 input   60.00 | X-H torsion
[ 4507 1931 1930 1928 ] final -107.41 input   60.00 | X-H torsion
[ 3677 1070 1069 1066 ] final -105.69 input   60.00 | X-H torsion
[ 3525  925  924  922 ] final   49.93 input   59.99 | X-H torsion
[ 4531 1957 1955 1953 ] final   92.59 input   60.00 | X-H torsion

> <Gold.Protein.ActiveResidues>
 PHE267  PRO268  MET310  ASP335  TRP336  MET339  TYR343  THR360  PRO361  ILE363 
 PRO371  SER374  ILE375  ASN378  PHE381  TYR383  GLN384  PHE387  LEU408  LEU417 
 MET419  LEU428  TYR466  MET469  ASN472  ASP496  VAL498  LEU499  MET503  HIS524 
 TRP525 

> <Gold.Protein.RotatedAtoms>
   -2.9557  -29.7897  -30.8677 H   0  0  0  0  0  0  0  0  0  0  0  0  # atno 3525 bound_to 925 
  -11.6534  -23.7125  -31.4333 H   0  0  0  0  0  0  0  0  0  0  0  0  # atno 3677 bound_to 1070
   -9.4242  -36.3117  -33.6900 H   0  0  0  0  0  0  0  0  0  0  0  0  # atno 3781 bound_to 1176
  -16.0062  -28.2938  -37.1008 H   0  0  0  0  0  0  0  0  0  0  0  0  # atno 3847 bound_to 1247
  -13.5806  -24.6664  -40.4125 H   0  0  0  0  0  0  0  0  0  0  0  0  # atno 4507 bound_to 1931
   -2.7697  -33.8510  -36.7290 H   0  0  0  0  0  0  0  0  0  0  0  0  # atno 4531 bound_to 1957
   -9.9041  -37.1252  -32.3648 LP  0  0  0  0  0  0  0  0  0  0  0  0  # atno 5205 bound_to 1176
  -10.7867  -37.2002  -33.7366 LP  0  0  0  0  0  0  0  0  0  0  0  0  # atno 5206 bound_to 1176
  -15.0579  -27.2248  -37.8793 LP  0  0  0  0  0  0  0  0  0  0  0  0  # atno 5215 bound_to 1247
  -14.4945  -28.7170  -37.5295 LP  0  0  0  0  0  0  0  0  0  0  0  0  # atno 5216 bound_to 1247
  -12.4875  -23.8396  -39.5352 LP  0  0  0  0  0  0  0  0  0  0  0  0  # atno 5217 bound_to 1931
  -13.1231  -25.2275  -38.9551 LP  0  0  0  0  0  0  0  0  0  0  0  0  # atno 5218 bound_to 1931
  -11.3967  -22.2640  -30.7375 LP  0  0  0  0  0  0  0  0  0  0  0  0  # atno 5224 bound_to 1070
  -12.8060  -23.0520  -30.4934 LP  0  0  0  0  0  0  0  0  0  0  0  0  # atno 5225 bound_to 1070

$$$$
IA_124.cdx|SeH_inactivess_minimized|sdf|25|dock10
  -GOLD-   4172119 53D 1   1.00000     0.00000

 28 28  0  0  0  0  0  0  0  0  1 V2000
  -11.0702  -25.1402  -35.5176 C   0  0  0  0  0  0  0  0  0  0  0  0
  -10.1231  -25.4245  -34.5339 C   0  0  0  0  0  0  0  0  0  0  0  0
  -11.2503  -26.0178  -36.5868 C   0  0  0  0  0  0  0  0  0  0  0  0
   -9.3559  -26.5863  -34.6195 C   0  0  0  0  0  0  0  0  0  0  0  0
  -10.4831  -27.1795  -36.6724 C   0  0  0  0  0  0  0  0  0  0  0  0
   -9.5360  -27.4639  -35.6887 C   0  0  0  0  0  0  0  0  0  0  0  0
   -8.5609  -33.3798  -35.6725 C   0  0  0  0  0  0  0  0  0  0  0  0
   -7.5171  -28.9028  -35.1950 C   0  0  0  0  0  0  0  0  0  0  0  0
   -5.6974  -30.6210  -35.1457 C   0  0  0  0  0  0  0  0  0  0  0  0
   -8.4447  -31.9672  -35.1709 C   0  0  0  0  0  0  0  0  0  0  0  0
   -8.7582  -28.6417  -35.7751 N   0  0  0  0  0  0  0  0  0  0  0  0
   -7.0346  -30.1718  -35.4874 N   0  0  0  0  0  0  0  0  0  0  0  0
   -9.1168  -34.3009  -35.0932 O   0  0  0  0  0  0  0  0  0  0  0  0
   -6.8810  -28.1162  -34.4927 O   0  0  0  0  0  0  0  0  0  0  0  0
   -7.9549  -33.4992  -36.8807 O   0  0  0  0  0  0  0  0  0  0  0  0
   -7.7911  -31.1606  -36.1474 O   0  0  0  0  0  0  0  0  0  0  0  0
  -11.6683  -24.2360  -35.4509 H   0  0  0  0  0  0  0  0  0  0  0  0
   -9.9832  -24.7420  -33.7009 H   0  0  0  0  0  0  0  0  0  0  0  0
  -11.9886  -25.7965  -37.3521 H   0  0  0  0  0  0  0  0  0  0  0  0
   -8.6208  -26.7976  -33.8469 H   0  0  0  0  0  0  0  0  0  0  0  0
  -10.6323  -27.8561  -37.5103 H   0  0  0  0  0  0  0  0  0  0  0  0
   -5.4627  -30.3507  -34.1128 H   0  0  0  0  0  0  0  0  0  0  0  0
   -4.9618  -30.1555  -35.8071 H   0  0  0  0  0  0  0  0  0  0  0  0
   -5.6253  -31.7069  -35.2503 H   0  0  0  0  0  0  0  0  0  0  0  0
   -7.8434  -31.9551  -34.2582 H   0  0  0  0  0  0  0  0  0  0  0  0
   -9.4380  -31.5542  -34.9753 H   0  0  0  0  0  0  0  0  0  0  0  0
   -9.1631  -29.3974  -36.3214 H   0  0  0  0  0  0  0  0  0  0  0  0
   -7.9946  -34.4187  -37.2208 H   0  0  0  0  0  0  0  0  0  0  0  0
  1  2  2  0  0  0  0
  1  3  1  0  0  0  0
  2  4  1  0  0  0  0
  3  5  2  0  0  0  0
  4  6  2  0  0  0  0
  5  6  1  0  0  0  0
  6 11  1  0  0  0  0
  7 10  1  0  0  0  0
  7 13  2  0  0  0  0
  7 15  1  0  0  0  0
  8 11  1  0  0  0  0
  8 12  1  0  0  0  0
  8 14  2  0  0  0  0
  9 12  1  0  0  0  0
 10 16  1  0  0  0  0
 12 16  1  0  0  0  0
  1 17  1  0  0  0  0
  2 18  1  0  0  0  0
  3 19  1  0  0  0  0
  4 20  1  0  0  0  0
  5 21  1  0  0  0  0
  9 22  1  0  0  0  0
  9 23  1  0  0  0  0
  9 24  1  0  0  0  0
 10 25  1  0  0  0  0
 10 26  1  0  0  0  0
 11 27  1  0  0  0  0
 15 28  1  0  0  0  0
M  END
> <Name>
IA_124.cdx

> <SourceTag>
IA_124

> <Gold.Version>
5.2

> <Gold.Id.Protein>
6HGV|6HGV_protein|mol2

> <Gold.Goldscore.Fitness>
45.9350

> <Gold.Goldscore.Internal.Vdw>
-4.0569

> <Gold.Goldscore.Internal.Torsion>
-5.0119

> <Gold.Goldscore.External.Vdw>
35.2599

> <Gold.Goldscore.Internal.HBond>
0.0000

> <Gold.Goldscore.External.HBond>
2.1516

> <Gold.Goldscore.Internal.Correction>
-4.3699

> <Gold.Goldscore.Hbonds>
donor molecule, donor type, donor heavy atom, donor atom, acceptor molecule, acceptor atom, score
      P1  H  1176  3781       L1    13  0.90
      L1  H    11    27       P1  1255  0.02
      L1  H    15    28       P1  1150  0.16

> <Gold.Goldscore.Internal.Vdw.Weighted>
-4.0569

> <Gold.Goldscore.Internal.Torsion.Weighted>
-5.0119

> <Gold.Goldscore.External.Vdw.Weighted>
48.4824

> <Gold.Goldscore.Internal.HBond.Weighted>
0.0000

> <Gold.Goldscore.External.HBond.Weighted>
2.1516

> <Gold.Goldscore.Internal.Correction.Weighted>
-4.3699

> <Gold.Protein.RotatedTorsions>
[ 3781 1176 1175 1172 ] final -111.12 input   60.00 | X-H torsion
[ 3847 1247 1246 1244 ] final  155.91 input   60.00 | X-H torsion
[ 4507 1931 1930 1928 ] final  125.49 input   60.00 | X-H torsion
[ 3677 1070 1069 1066 ] final -128.22 input   60.00 | X-H torsion
[ 3525  925  924  922 ] final   31.55 input   59.99 | X-H torsion
[ 4531 1957 1955 1953 ] final    9.08 input   60.00 | X-H torsion

> <Gold.Protein.ActiveResidues>
 PHE267  PRO268  MET310  ASP335  TRP336  MET339  TYR343  THR360  PRO361  ILE363 
 PRO371  SER374  ILE375  ASN378  PHE381  TYR383  GLN384  PHE387  LEU408  LEU417 
 MET419  LEU428  TYR466  MET469  ASN472  ASP496  VAL498  LEU499  MET503  HIS524 
 TRP525 

> <Gold.Protein.RotatedAtoms>
   -3.2241  -29.6793  -30.7952 H   0  0  0  0  0  0  0  0  0  0  0  0  # atno 3525 bound_to 925 
  -11.3665  -23.4860  -31.4453 H   0  0  0  0  0  0  0  0  0  0  0  0  # atno 3677 bound_to 1070
   -9.5601  -36.3376  -33.8627 H   0  0  0  0  0  0  0  0  0  0  0  0  # atno 3781 bound_to 1176
  -14.4248  -27.7469  -37.9307 H   0  0  0  0  0  0  0  0  0  0  0  0  # atno 3847 bound_to 1247
  -12.4614  -23.8915  -39.4340 H   0  0  0  0  0  0  0  0  0  0  0  0  # atno 4507 bound_to 1931
   -2.9465  -32.6178  -36.6740 H   0  0  0  0  0  0  0  0  0  0  0  0  # atno 4531 bound_to 1957
   -9.7228  -36.9970  -32.3839 LP  0  0  0  0  0  0  0  0  0  0  0  0  # atno 5205 bound_to 1176
  -10.8312  -37.3022  -33.5435 LP  0  0  0  0  0  0  0  0  0  0  0  0  # atno 5206 bound_to 1176
  -15.1931  -28.9586  -37.1629 LP  0  0  0  0  0  0  0  0  0  0  0  0  # atno 5215 bound_to 1247
  -15.9518  -27.5339  -37.4102 LP  0  0  0  0  0  0  0  0  0  0  0  0  # atno 5216 bound_to 1247
  -13.2011  -25.2815  -39.0233 LP  0  0  0  0  0  0  0  0  0  0  0  0  # atno 5217 bound_to 1931
  -13.5366  -24.5660  -40.4523 LP  0  0  0  0  0  0  0  0  0  0  0  0  # atno 5218 bound_to 1931
  -11.6943  -22.1741  -30.5400 LP  0  0  0  0  0  0  0  0  0  0  0  0  # atno 5224 bound_to 1070
  -12.7973  -23.3701  -30.6788 LP  0  0  0  0  0  0  0  0  0  0  0  0  # atno 5225 bound_to 1070

$$$$
IA_14|SeH_inactivess_minimized|sdf|42|dock4
  -GOLD-   4172119323D 1   1.00000     0.00000

 61 63  0  0  0  0  0  0  0  0  1 V2000
  -13.5968  -25.5266  -37.3577 C   0  0  0  0  0  0  0  0  0  0  0  0
  -16.1569  -23.1160  -38.1309 C   0  0  0  0  0  0  0  0  0  0  0  0
   -7.9574  -28.9888  -34.3143 C   0  0  0  0  0  0  0  0  0  0  0  0
   -4.1728  -32.0634  -32.3060 C   0  0  0  0  0  0  0  0  0  0  0  0
   -3.8852  -32.3755  -34.7776 C   0  0  0  0  0  0  0  0  0  0  0  0
   -5.9250  -33.2752  -33.6293 C   0  0  0  0  0  0  0  0  0  0  0  0
   -4.3661  -30.0964  -33.8491 C   0  0  0  0  0  0  0  0  0  0  0  0
   -6.4080  -30.9972  -32.6995 C   0  0  0  0  0  0  0  0  0  0  0  0
   -6.1204  -31.3102  -35.1750 C   0  0  0  0  0  0  0  0  0  0  0  0
   -3.6314  -31.4242  -33.5959 C   0  0  0  0  0  0  0  0  0  0  0  0
   -5.6817  -32.3286  -32.4415 C   0  0  0  0  0  0  0  0  0  0  0  0
   -5.3927  -32.6426  -34.9264 C   0  0  0  0  0  0  0  0  0  0  0  0
   -5.8844  -30.3411  -33.9964 C   0  0  0  0  0  0  0  0  0  0  0  0
  -12.3491  -25.2872  -36.5241 C   0  0  0  0  0  0  0  0  0  0  0  0
  -12.4359  -25.8546  -35.1077 C   0  0  0  0  0  0  0  0  0  0  0  0
  -11.3349  -25.3770  -34.1521 C   0  0  0  0  0  0  0  0  0  0  0  0
   -9.9239  -25.7708  -34.6017 C   0  0  0  0  0  0  0  0  0  0  0  0
   -9.7367  -27.2837  -34.6753 C   0  0  0  0  0  0  0  0  0  0  0  0
  -16.9501  -25.1616  -36.9426 C   0  0  0  0  0  0  0  0  0  0  0  0
  -15.8429  -24.5588  -37.7943 C   0  0  2  0  0  0  0  0  0  0  0  0
  -14.5730  -24.5736  -37.1064 N   0  0  0  0  0  0  0  0  0  0  0  0
   -6.5723  -29.0905  -34.2320 N   0  0  0  0  0  0  0  0  0  0  0  0
   -8.3525  -27.6737  -34.5463 N   0  0  0  0  0  0  0  0  0  0  0  0
  -13.6971  -26.4413  -38.1711 O   0  0  0  0  0  0  0  0  0  0  0  0
  -17.2675  -22.6040  -38.0715 O   0  0  0  0  0  0  0  0  0  0  0  0
   -8.7343  -29.9355  -34.1971 O   0  0  0  0  0  0  0  0  0  0  0  0
  -15.0574  -22.4449  -38.5632 O   0  0  0  0  0  0  0  0  0  0  0  0
  -18.0987  -25.3774  -37.7535 O   0  0  0  0  0  0  0  0  0  0  0  0
   -3.6439  -33.0028  -32.1036 H   0  0  0  0  0  0  0  0  0  0  0  0
   -3.9841  -31.4014  -31.4519 H   0  0  0  0  0  0  0  0  0  0  0  0
   -3.4895  -31.9381  -35.7024 H   0  0  0  0  0  0  0  0  0  0  0  0
   -3.3515  -33.3207  -34.6183 H   0  0  0  0  0  0  0  0  0  0  0  0
   -5.4275  -34.2363  -33.4504 H   0  0  0  0  0  0  0  0  0  0  0  0
   -6.9972  -33.4850  -33.7272 H   0  0  0  0  0  0  0  0  0  0  0  0
   -4.1710  -29.4003  -33.0228 H   0  0  0  0  0  0  0  0  0  0  0  0
   -3.9692  -29.6179  -34.7542 H   0  0  0  0  0  0  0  0  0  0  0  0
   -7.4897  -31.1709  -32.7721 H   0  0  0  0  0  0  0  0  0  0  0  0
   -6.2620  -30.3215  -31.8464 H   0  0  0  0  0  0  0  0  0  0  0  0
   -5.7665  -30.8616  -36.1125 H   0  0  0  0  0  0  0  0  0  0  0  0
   -7.1949  -31.4931  -35.3084 H   0  0  0  0  0  0  0  0  0  0  0  0
   -2.5564  -31.2386  -33.4943 H   0  0  0  0  0  0  0  0  0  0  0  0
   -6.0614  -32.7850  -31.5207 H   0  0  0  0  0  0  0  0  0  0  0  0
   -5.5669  -33.3221  -35.7681 H   0  0  0  0  0  0  0  0  0  0  0  0
  -11.5207  -25.7798  -37.0486 H   0  0  0  0  0  0  0  0  0  0  0  0
  -12.1195  -24.2169  -36.5017 H   0  0  0  0  0  0  0  0  0  0  0  0
  -13.4092  -25.5985  -34.6708 H   0  0  0  0  0  0  0  0  0  0  0  0
  -12.4014  -26.9494  -35.1669 H   0  0  0  0  0  0  0  0  0  0  0  0
  -11.5303  -25.8177  -33.1665 H   0  0  0  0  0  0  0  0  0  0  0  0
  -11.3966  -24.2907  -34.0242 H   0  0  0  0  0  0  0  0  0  0  0  0
   -9.7302  -25.3469  -35.5941 H   0  0  0  0  0  0  0  0  0  0  0  0
   -9.1799  -25.3501  -33.9158 H   0  0  0  0  0  0  0  0  0  0  0  0
  -10.3039  -27.7936  -33.8902 H   0  0  0  0  0  0  0  0  0  0  0  0
  -10.0853  -27.6568  -35.6436 H   0  0  0  0  0  0  0  0  0  0  0  0
  -17.2351  -24.4835  -36.1312 H   0  0  0  0  0  0  0  0  0  0  0  0
  -16.6457  -26.1181  -36.5032 H   0  0  0  0  0  0  0  0  0  0  0  0
  -15.6806  -25.1310  -38.7140 H   0  0  0  0  0  0  0  0  0  0  0  0
  -14.4152  -23.8738  -36.3871 H   0  0  0  0  0  0  0  0  0  0  0  0
   -6.0187  -28.2479  -34.3424 H   0  0  0  0  0  0  0  0  0  0  0  0
   -7.6422  -26.9493  -34.5830 H   0  0  0  0  0  0  0  0  0  0  0  0
  -15.2122  -21.5110  -38.8208 H   0  0  0  0  0  0  0  0  0  0  0  0
  -18.7753  -25.7710  -37.1797 H   0  0  0  0  0  0  0  0  0  0  0  0
  1 14  1  0  0  0  0
  1 21  1  0  0  0  0
  1 24  2  0  0  0  0
  2 20  1  0  0  0  0
  2 25  2  0  0  0  0
  2 27  1  0  0  0  0
  3 22  1  0  0  0  0
  3 23  1  0  0  0  0
  3 26  2  0  0  0  0
  4 10  1  0  0  0  0
  4 11  1  0  0  0  0
  5 10  1  0  0  0  0
  5 12  1  0  0  0  0
  6 11  1  0  0  0  0
  6 12  1  0  0  0  0
  7 10  1  0  0  0  0
  7 13  1  0  0  0  0
  8 11  1  0  0  0  0
  8 13  1  0  0  0  0
  9 12  1  0  0  0  0
  9 13  1  0  0  0  0
 13 22  1  0  0  0  0
 14 15  1  0  0  0  0
 15 16  1  0  0  0  0
 16 17  1  0  0  0  0
 17 18  1  0  0  0  0
 18 23  1  0  0  0  0
 19 20  1  0  0  0  0
 19 28  1  0  0  0  0
 20 21  1  0  0  0  0
  4 29  1  0  0  0  0
  4 30  1  0  0  0  0
  5 31  1  0  0  0  0
  5 32  1  0  0  0  0
  6 33  1  0  0  0  0
  6 34  1  0  0  0  0
  7 35  1  0  0  0  0
  7 36  1  0  0  0  0
  8 37  1  0  0  0  0
  8 38  1  0  0  0  0
  9 39  1  0  0  0  0
  9 40  1  0  0  0  0
 10 41  1  0  0  0  0
 11 42  1  0  0  0  0
 12 43  1  0  0  0  0
 14 44  1  0  0  0  0
 14 45  1  0  0  0  0
 15 46  1  0  0  0  0
 15 47  1  0  0  0  0
 16 48  1  0  0  0  0
 16 49  1  0  0  0  0
 17 50  1  0  0  0  0
 17 51  1  0  0  0  0
 18 52  1  0  0  0  0
 18 53  1  0  0  0  0
 19 54  1  0  0  0  0
 19 55  1  0  0  0  0
 20 56  1  0  0  0  0
 21 57  1  0  0  0  0
 22 58  1  0  0  0  0
 23 59  1  0  0  0  0
 27 60  1  0  0  0  0
 28 61  1  0  0  0  0
M  END
> <Name>
IA_14

> <SourceTag>
IA_14

> <Gold.Version>
5.2

> <Gold.Id.Protein>
6HGV|6HGV_protein|mol2

> <Gold.Goldscore.Fitness>
79.8553

> <Gold.Goldscore.Internal.Vdw>
-5.4472

> <Gold.Goldscore.Internal.Torsion>
-4.9078

> <Gold.Goldscore.External.Vdw>
55.3503

> <Gold.Goldscore.Internal.HBond>
0.0000

> <Gold.Goldscore.External.HBond>
6.8922

> <Gold.Goldscore.Internal.Correction>
-7.2116

> <Gold.Goldscore.Hbonds>
donor molecule, donor type, donor heavy atom, donor atom, acceptor molecule, acceptor atom, score
      P1  H  1247  3847       L1    24  0.26
      L1  H    21    57       P1   853  0.98
      L1  H    27    60       P1   302  0.24

> <Gold.Goldscore.Internal.Vdw.Weighted>
-5.4472

> <Gold.Goldscore.Internal.Torsion.Weighted>
-4.9078

> <Gold.Goldscore.External.Vdw.Weighted>
76.1066

> <Gold.Goldscore.Internal.HBond.Weighted>
0.0000

> <Gold.Goldscore.External.HBond.Weighted>
6.8922

> <Gold.Goldscore.Internal.Correction.Weighted>
-7.2116

> <Gold.Protein.RotatedTorsions>
[ 3781 1176 1175 1172 ] final -143.99 input   60.00 | X-H torsion
[ 3847 1247 1246 1244 ] final  166.65 input   60.00 | X-H torsion
[ 4507 1931 1930 1928 ] final  128.47 input   60.00 | X-H torsion
[ 3677 1070 1069 1066 ] final -119.64 input   60.00 | X-H torsion
[ 3525  925  924  922 ] final   80.19 input   59.99 | X-H torsion
[ 4531 1957 1955 1953 ] final  111.19 input   60.00 | X-H torsion

> <Gold.Protein.ActiveResidues>
 PHE267  PRO268  MET310  ASP335  TRP336  MET339  TYR343  THR360  PRO361  ILE363 
 PRO371  SER374  ILE375  ASN378  PHE381  TYR383  GLN384  PHE387  LEU408  LEU417 
 MET419  LEU428  TYR466  MET469  ASN472  ASP496  VAL498  LEU499  MET503  HIS524 
 TRP525 

> <Gold.Protein.RotatedAtoms>
   -2.5178  -29.9885  -30.7811 H   0  0  0  0  0  0  0  0  0  0  0  0  # atno 3525 bound_to 925 
  -11.4674  -23.5829  -31.4509 H   0  0  0  0  0  0  0  0  0  0  0  0  # atno 3677 bound_to 1070
   -9.2914  -36.3293  -33.4062 H   0  0  0  0  0  0  0  0  0  0  0  0  # atno 3781 bound_to 1176
  -14.5192  -27.6006  -37.9496 H   0  0  0  0  0  0  0  0  0  0  0  0  # atno 3847 bound_to 1247
  -12.4722  -23.8711  -39.4769 H   0  0  0  0  0  0  0  0  0  0  0  0  # atno 4507 bound_to 1931
   -2.5138  -34.0044  -36.7803 H   0  0  0  0  0  0  0  0  0  0  0  0  # atno 4531 bound_to 1957
  -10.1721  -37.2819  -32.4238 LP  0  0  0  0  0  0  0  0  0  0  0  0  # atno 5205 bound_to 1176
  -10.6525  -37.0257  -33.9633 LP  0  0  0  0  0  0  0  0  0  0  0  0  # atno 5206 bound_to 1176
  -15.0282  -28.9658  -37.2249 LP  0  0  0  0  0  0  0  0  0  0  0  0  # atno 5215 bound_to 1247
  -16.0217  -27.6741  -37.3291 LP  0  0  0  0  0  0  0  0  0  0  0  0  # atno 5216 bound_to 1247
  -13.1685  -25.2601  -38.9935 LP  0  0  0  0  0  0  0  0  0  0  0  0  # atno 5217 bound_to 1931
  -13.5582  -24.6080  -40.4390 LP  0  0  0  0  0  0  0  0  0  0  0  0  # atno 5218 bound_to 1931
  -11.5737  -22.1936  -30.6104 LP  0  0  0  0  0  0  0  0  0  0  0  0  # atno 5224 bound_to 1070
  -12.8164  -23.2530  -30.6028 LP  0  0  0  0  0  0  0  0  0  0  0  0  # atno 5225 bound_to 1070

$$$$
IA_210.cdx|SeH_inactivess_minimized|sdf|108|dock8
  -GOLD-   4172120563D 1   1.00000     0.00000

 41 42  0  0  0  0  0  0  0  0  1 V2000
  -17.7743  -24.5720  -39.6409 C   0  0  0  0  0  0  0  0  0  0  0  0
  -18.1008  -25.1811  -38.4293 C   0  0  0  0  0  0  0  0  0  0  0  0
  -16.5684  -23.8832  -39.7725 C   0  0  0  0  0  0  0  0  0  0  0  0
  -17.2217  -25.1014  -37.3493 C   0  0  0  0  0  0  0  0  0  0  0  0
  -15.6892  -23.8036  -38.6925 C   0  0  0  0  0  0  0  0  0  0  0  0
  -14.5473  -26.5073  -35.6277 C   0  0  0  0  0  0  0  0  0  0  0  0
  -12.9278  -25.1361  -36.7829 C   0  0  0  0  0  0  0  0  0  0  0  0
  -13.5948  -27.5170  -35.4910 C   0  0  0  0  0  0  0  0  0  0  0  0
  -11.9753  -26.1459  -36.6462 C   0  0  0  0  0  0  0  0  0  0  0  0
  -16.0159  -24.4127  -37.4810 C   0  0  0  0  0  0  0  0  0  0  0  0
  -14.2137  -25.3168  -36.2737 C   0  0  0  0  0  0  0  0  0  0  0  0
  -12.3089  -27.3364  -36.0003 C   0  0  0  0  0  0  0  0  0  0  0  0
   -8.3041  -31.2484  -35.8370 C   0  0  0  0  0  0  0  0  0  0  0  0
   -8.4488  -34.2078  -35.5027 C   0  0  0  0  0  0  0  0  0  0  0  0
   -9.1784  -29.0121  -35.1773 C   0  0  0  0  0  0  0  0  0  0  0  0
   -7.8222  -33.4278  -36.6387 C   0  0  0  0  0  0  0  0  0  0  0  0
  -10.0106  -27.9240  -35.8310 C   0  0  0  0  0  0  0  0  0  0  0  0
   -9.1566  -30.1812  -36.0259 N   0  0  0  0  0  0  0  0  0  0  0  0
   -7.4684  -31.3486  -34.9446 O   0  0  0  0  0  0  0  0  0  0  0  0
  -15.1434  -24.3319  -36.4086 O   0  0  0  0  0  0  0  0  0  0  0  0
  -11.3733  -28.3286  -35.8661 O   0  0  0  0  0  0  0  0  0  0  0  0
   -8.5271  -32.1917  -36.8003 O   0  0  0  0  0  0  0  0  0  0  0  0
  -18.4584  -24.6342  -40.4821 H   0  0  0  0  0  0  0  0  0  0  0  0
  -19.0399  -25.7173  -38.3266 H   0  0  0  0  0  0  0  0  0  0  0  0
  -16.3147  -23.4093  -40.7164 H   0  0  0  0  0  0  0  0  0  0  0  0
  -17.4827  -25.5769  -36.4077 H   0  0  0  0  0  0  0  0  0  0  0  0
  -14.7522  -23.2642  -38.8003 H   0  0  0  0  0  0  0  0  0  0  0  0
  -15.5481  -26.6546  -35.2311 H   0  0  0  0  0  0  0  0  0  0  0  0
  -12.6628  -24.2111  -37.2878 H   0  0  0  0  0  0  0  0  0  0  0  0
  -13.8599  -28.4417  -34.9858 H   0  0  0  0  0  0  0  0  0  0  0  0
  -10.9753  -25.9998  -37.0450 H   0  0  0  0  0  0  0  0  0  0  0  0
   -9.4997  -34.4262  -35.7123 H   0  0  0  0  0  0  0  0  0  0  0  0
   -7.9167  -35.1513  -35.3425 H   0  0  0  0  0  0  0  0  0  0  0  0
   -8.3854  -33.6437  -34.5662 H   0  0  0  0  0  0  0  0  0  0  0  0
   -8.1464  -28.6824  -35.0211 H   0  0  0  0  0  0  0  0  0  0  0  0
   -9.6131  -29.2974  -34.2146 H   0  0  0  0  0  0  0  0  0  0  0  0
   -7.8845  -33.9938  -37.5730 H   0  0  0  0  0  0  0  0  0  0  0  0
   -6.7725  -33.2093  -36.4215 H   0  0  0  0  0  0  0  0  0  0  0  0
   -9.6783  -27.7663  -36.8617 H   0  0  0  0  0  0  0  0  0  0  0  0
   -9.9382  -26.9785  -35.2838 H   0  0  0  0  0  0  0  0  0  0  0  0
   -9.8058  -30.2191  -36.8057 H   0  0  0  0  0  0  0  0  0  0  0  0
  1  2  2  0  0  0  0
  1  3  1  0  0  0  0
  2  4  1  0  0  0  0
  3  5  2  0  0  0  0
  4 10  2  0  0  0  0
  5 10  1  0  0  0  0
  6  8  1  0  0  0  0
  6 11  2  0  0  0  0
  7  9  2  0  0  0  0
  7 11  1  0  0  0  0
  8 12  2  0  0  0  0
  9 12  1  0  0  0  0
 10 20  1  0  0  0  0
 11 20  1  0  0  0  0
 12 21  1  0  0  0  0
 13 18  1  0  0  0  0
 13 19  2  0  0  0  0
 13 22  1  0  0  0  0
 14 16  1  0  0  0  0
 15 17  1  0  0  0  0
 15 18  1  0  0  0  0
 16 22  1  0  0  0  0
 17 21  1  0  0  0  0
  1 23  1  0  0  0  0
  2 24  1  0  0  0  0
  3 25  1  0  0  0  0
  4 26  1  0  0  0  0
  5 27  1  0  0  0  0
  6 28  1  0  0  0  0
  7 29  1  0  0  0  0
  8 30  1  0  0  0  0
  9 31  1  0  0  0  0
 14 32  1  0  0  0  0
 14 33  1  0  0  0  0
 14 34  1  0  0  0  0
 15 35  1  0  0  0  0
 15 36  1  0  0  0  0
 16 37  1  0  0  0  0
 16 38  1  0  0  0  0
 17 39  1  0  0  0  0
 17 40  1  0  0  0  0
 18 41  1  0  0  0  0
M  END
> <Name>
IA_210.cdx

> <SourceTag>
IA_210

> <Gold.Version>
5.2

> <Gold.Id.Protein>
6HGV|6HGV_protein|mol2

> <Gold.Goldscore.Fitness>
57.9777

> <Gold.Goldscore.Internal.Vdw>
-4.0536

> <Gold.Goldscore.Internal.Torsion>
-7.6520

> <Gold.Goldscore.External.Vdw>
43.7184

> <Gold.Goldscore.Internal.HBond>
0.0000

> <Gold.Goldscore.External.HBond>
0.6421

> <Gold.Goldscore.Internal.Correction>
-8.9284

> <Gold.Goldscore.Hbonds>
donor molecule, donor type, donor heavy atom, donor atom, acceptor molecule, acceptor atom, score
      P1  H  1256  3854       L1    21  0.02
      L1  H    18    41       P1  1255  0.30

> <Gold.Goldscore.Internal.Vdw.Weighted>
-4.0536

> <Gold.Goldscore.Internal.Torsion.Weighted>
-7.6520

> <Gold.Goldscore.External.Vdw.Weighted>
60.1128

> <Gold.Goldscore.Internal.HBond.Weighted>
0.0000

> <Gold.Goldscore.External.HBond.Weighted>
0.6421

> <Gold.Goldscore.Internal.Correction.Weighted>
-8.9284

> <Gold.Protein.RotatedTorsions>
[ 3781 1176 1175 1172 ] final  -85.45 input   60.00 | X-H torsion
[ 3847 1247 1246 1244 ] final  -21.73 input   60.00 | X-H torsion
[ 4507 1931 1930 1928 ] final  -33.99 input   60.00 | X-H torsion
[ 3677 1070 1069 1066 ] final -115.58 input   60.00 | X-H torsion
[ 3525  925  924  922 ] final  -98.65 input   59.99 | X-H torsion
[ 4531 1957 1955 1953 ] final  -83.15 input   60.00 | X-H torsion

> <Gold.Protein.ActiveResidues>
 PHE267  PRO268  MET310  ASP335  TRP336  MET339  TYR343  THR360  PRO361  ILE363 
 PRO371  SER374  ILE375  ASN378  PHE381  TYR383  GLN384  PHE387  LEU408  LEU417 
 MET419  LEU428  TYR466  MET469  ASN472  ASP496  VAL498  LEU499  MET503  HIS524 
 TRP525 

> <Gold.Protein.RotatedAtoms>
   -3.3250  -29.7901  -29.1034 H   0  0  0  0  0  0  0  0  0  0  0  0  # atno 3525 bound_to 925 
  -11.5191  -23.6246  -31.4492 H   0  0  0  0  0  0  0  0  0  0  0  0  # atno 3677 bound_to 1070
   -9.8825  -36.4669  -34.0918 H   0  0  0  0  0  0  0  0  0  0  0  0  # atno 3781 bound_to 1176
  -15.9340  -28.4456  -37.0711 H   0  0  0  0  0  0  0  0  0  0  0  0  # atno 3847 bound_to 1247
  -13.5605  -25.3664  -39.5395 H   0  0  0  0  0  0  0  0  0  0  0  0  # atno 4507 bound_to 1931
   -1.6426  -32.3692  -36.9176 H   0  0  0  0  0  0  0  0  0  0  0  0  # atno 4531 bound_to 1957
   -9.4353  -36.7424  -32.5516 LP  0  0  0  0  0  0  0  0  0  0  0  0  # atno 5205 bound_to 1176
  -10.7940  -37.4266  -33.1452 LP  0  0  0  0  0  0  0  0  0  0  0  0  # atno 5206 bound_to 1176
  -15.2190  -27.1947  -37.8276 LP  0  0  0  0  0  0  0  0  0  0  0  0  # atno 5215 bound_to 1247
  -14.4061  -28.5943  -37.6112 LP  0  0  0  0  0  0  0  0  0  0  0  0  # atno 5216 bound_to 1247
  -13.1566  -24.0561  -40.4159 LP  0  0  0  0  0  0  0  0  0  0  0  0  # atno 5217 bound_to 1931
  -12.4741  -24.3060  -38.9536 LP  0  0  0  0  0  0  0  0  0  0  0  0  # atno 5218 bound_to 1931
  -11.5193  -22.2093  -30.6461 LP  0  0  0  0  0  0  0  0  0  0  0  0  # atno 5224 bound_to 1070
  -12.8187  -23.1954  -30.5688 LP  0  0  0  0  0  0  0  0  0  0  0  0  # atno 5225 bound_to 1070

$$$$
IA_20|SeH_inactivess_minimized|sdf|98|dock6
  -GOLD-   4172120383D 1   1.00000     0.00000

 66 68  0  0  0  0  0  0  0  0  1 V2000
  -14.7052  -25.7849  -36.7508 C   0  0  0  0  0  0  0  0  0  0  0  0
  -20.2370  -23.3287  -38.6242 C   0  0  0  0  0  0  0  0  0  0  0  0
  -15.7577  -23.6401  -38.5220 C   0  0  0  0  0  0  0  0  0  0  0  0
   -8.0253  -29.1533  -34.9028 C   0  0  0  0  0  0  0  0  0  0  0  0
   -4.5499  -32.0995  -32.1691 C   0  0  0  0  0  0  0  0  0  0  0  0
   -3.7286  -32.1953  -34.5367 C   0  0  0  0  0  0  0  0  0  0  0  0
   -5.8794  -33.3221  -33.9091 C   0  0  0  0  0  0  0  0  0  0  0  0
   -4.5832  -30.0352  -33.5925 C   0  0  0  0  0  0  0  0  0  0  0  0
   -6.7361  -31.1633  -32.9641 C   0  0  0  0  0  0  0  0  0  0  0  0
   -5.9140  -31.2598  -35.3355 C   0  0  0  0  0  0  0  0  0  0  0  0
   -3.8079  -31.3246  -33.2711 C   0  0  0  0  0  0  0  0  0  0  0  0
   -5.9695  -32.4573  -32.6403 C   0  0  0  0  0  0  0  0  0  0  0  0
   -5.1440  -32.5538  -35.0205 C   0  0  0  0  0  0  0  0  0  0  0  0
   -6.0112  -30.3724  -34.0757 C   0  0  0  0  0  0  0  0  0  0  0  0
  -14.2499  -26.1655  -35.3520 C   0  0  0  0  0  0  0  0  0  0  0  0
  -18.7786  -23.6405  -38.8807 C   0  0  0  0  0  0  0  0  0  0  0  0
  -12.8650  -26.8105  -35.3088 C   0  0  0  0  0  0  0  0  0  0  0  0
  -18.0769  -24.3278  -37.7025 C   0  0  0  0  0  0  0  0  0  0  0  0
  -11.7098  -25.8882  -35.7184 C   0  0  0  0  0  0  0  0  0  0  0  0
  -10.3724  -26.2604  -35.0697 C   0  0  0  0  0  0  0  0  0  0  0  0
   -9.7938  -27.5570  -35.6293 C   0  0  0  0  0  0  0  0  0  0  0  0
  -16.6200  -24.7422  -37.9418 C   0  0  2  0  0  0  0  0  0  0  0  0
  -15.9718  -25.2193  -36.7426 N   0  0  0  0  0  0  0  0  0  0  0  0
   -6.7382  -29.1581  -34.3747 N   0  0  0  0  0  0  0  0  0  0  0  0
   -8.4864  -27.8530  -35.0927 N   0  0  0  0  0  0  0  0  0  0  0  0
  -14.0091  -25.9406  -37.7505 O   0  0  0  0  0  0  0  0  0  0  0  0
  -21.1768  -23.7229  -39.3006 O   0  0  0  0  0  0  0  0  0  0  0  0
  -15.0680  -23.7395  -39.5284 O   0  0  0  0  0  0  0  0  0  0  0  0
   -8.6740  -30.1644  -35.1679 O   0  0  0  0  0  0  0  0  0  0  0  0
  -20.3923  -22.5059  -37.5540 O   0  0  0  0  0  0  0  0  0  0  0  0
  -15.8616  -22.4870  -37.8104 O   0  0  0  0  0  0  0  0  0  0  0  0
   -3.9973  -33.0129  -31.9172 H   0  0  0  0  0  0  0  0  0  0  0  0
   -4.5998  -31.4952  -31.2549 H   0  0  0  0  0  0  0  0  0  0  0  0
   -3.1874  -31.6601  -35.3265 H   0  0  0  0  0  0  0  0  0  0  0  0
   -3.1619  -33.1107  -34.3262 H   0  0  0  0  0  0  0  0  0  0  0  0
   -5.3506  -34.2574  -33.6882 H   0  0  0  0  0  0  0  0  0  0  0  0
   -6.8860  -33.5976  -34.2468 H   0  0  0  0  0  0  0  0  0  0  0  0
   -4.6239  -29.3946  -32.7018 H   0  0  0  0  0  0  0  0  0  0  0  0
   -4.0485  -29.4606  -34.3602 H   0  0  0  0  0  0  0  0  0  0  0  0
   -7.7603  -31.4055  -33.2769 H   0  0  0  0  0  0  0  0  0  0  0  0
   -6.8287  -30.5484  -32.0592 H   0  0  0  0  0  0  0  0  0  0  0  0
   -5.4118  -30.7153  -36.1459 H   0  0  0  0  0  0  0  0  0  0  0  0
   -6.9177  -31.5059  -35.7066 H   0  0  0  0  0  0  0  0  0  0  0  0
   -2.7971  -31.0735  -32.9308 H   0  0  0  0  0  0  0  0  0  0  0  0
   -6.4928  -33.0100  -31.8521 H   0  0  0  0  0  0  0  0  0  0  0  0
   -5.0811  -33.1755  -35.9206 H   0  0  0  0  0  0  0  0  0  0  0  0
  -14.2229  -25.2381  -34.7663 H   0  0  0  0  0  0  0  0  0  0  0  0
  -14.9969  -26.8151  -34.8844 H   0  0  0  0  0  0  0  0  0  0  0  0
  -18.7566  -24.3158  -39.7443 H   0  0  0  0  0  0  0  0  0  0  0  0
  -18.2534  -22.7215  -39.1575 H   0  0  0  0  0  0  0  0  0  0  0  0
  -12.6678  -27.1845  -34.2964 H   0  0  0  0  0  0  0  0  0  0  0  0
  -12.8672  -27.6876  -35.9679 H   0  0  0  0  0  0  0  0  0  0  0  0
  -18.6470  -25.2348  -37.4612 H   0  0  0  0  0  0  0  0  0  0  0  0
  -18.1272  -23.6855  -36.8148 H   0  0  0  0  0  0  0  0  0  0  0  0
  -11.9755  -24.8651  -35.4241 H   0  0  0  0  0  0  0  0  0  0  0  0
  -11.6065  -25.8804  -36.8091 H   0  0  0  0  0  0  0  0  0  0  0  0
   -9.6506  -25.4533  -35.2427 H   0  0  0  0  0  0  0  0  0  0  0  0
  -10.4959  -26.3611  -33.9855 H   0  0  0  0  0  0  0  0  0  0  0  0
  -10.4460  -28.4093  -35.4143 H   0  0  0  0  0  0  0  0  0  0  0  0
   -9.6835  -27.4788  -36.7156 H   0  0  0  0  0  0  0  0  0  0  0  0
  -16.5949  -25.5950  -38.6306 H   0  0  0  0  0  0  0  0  0  0  0  0
  -16.4893  -25.1647  -35.8701 H   0  0  0  0  0  0  0  0  0  0  0  0
   -6.2882  -28.2678  -34.1905 H   0  0  0  0  0  0  0  0  0  0  0  0
   -7.8983  -27.0784  -34.8017 H   0  0  0  0  0  0  0  0  0  0  0  0
  -21.3195  -22.2631  -37.3449 H   0  0  0  0  0  0  0  0  0  0  0  0
  -15.3828  -21.7185  -38.1879 H   0  0  0  0  0  0  0  0  0  0  0  0
  1 15  1  0  0  0  0
  1 23  1  0  0  0  0
  1 26  2  0  0  0  0
  2 16  1  0  0  0  0
  2 27  2  0  0  0  0
  2 30  1  0  0  0  0
  3 22  1  0  0  0  0
  3 28  2  0  0  0  0
  3 31  1  0  0  0  0
  4 24  1  0  0  0  0
  4 25  1  0  0  0  0
  4 29  2  0  0  0  0
  5 11  1  0  0  0  0
  5 12  1  0  0  0  0
  6 11  1  0  0  0  0
  6 13  1  0  0  0  0
  7 12  1  0  0  0  0
  7 13  1  0  0  0  0
  8 11  1  0  0  0  0
  8 14  1  0  0  0  0
  9 12  1  0  0  0  0
  9 14  1  0  0  0  0
 10 13  1  0  0  0  0
 10 14  1  0  0  0  0
 14 24  1  0  0  0  0
 15 17  1  0  0  0  0
 16 18  1  0  0  0  0
 17 19  1  0  0  0  0
 18 22  1  0  0  0  0
 19 20  1  0  0  0  0
 20 21  1  0  0  0  0
 21 25  1  0  0  0  0
 22 23  1  0  0  0  0
  5 32  1  0  0  0  0
  5 33  1  0  0  0  0
  6 34  1  0  0  0  0
  6 35  1  0  0  0  0
  7 36  1  0  0  0  0
  7 37  1  0  0  0  0
  8 38  1  0  0  0  0
  8 39  1  0  0  0  0
  9 40  1  0  0  0  0
  9 41  1  0  0  0  0
 10 42  1  0  0  0  0
 10 43  1  0  0  0  0
 11 44  1  0  0  0  0
 12 45  1  0  0  0  0
 13 46  1  0  0  0  0
 15 47  1  0  0  0  0
 15 48  1  0  0  0  0
 16 49  1  0  0  0  0
 16 50  1  0  0  0  0
 17 51  1  0  0  0  0
 17 52  1  0  0  0  0
 18 53  1  0  0  0  0
 18 54  1  0  0  0  0
 19 55  1  0  0  0  0
 19 56  1  0  0  0  0
 20 57  1  0  0  0  0
 20 58  1  0  0  0  0
 21 59  1  0  0  0  0
 21 60  1  0  0  0  0
 22 61  1  0  0  0  0
 23 62  1  0  0  0  0
 24 63  1  0  0  0  0
 25 64  1  0  0  0  0
 30 65  1  0  0  0  0
 31 66  1  0  0  0  0
M  END
> <Name>
IA_20

> <SourceTag>
IA_20

> <Gold.Version>
5.2

> <Gold.Id.Protein>
6HGV|6HGV_protein|mol2

> <Gold.Goldscore.Fitness>
82.7766

> <Gold.Goldscore.Internal.Vdw>
-3.1361

> <Gold.Goldscore.Internal.Torsion>
-5.3063

> <Gold.Goldscore.External.Vdw>
59.4263

> <Gold.Goldscore.Internal.HBond>
0.0000

> <Gold.Goldscore.External.HBond>
3.2095

> <Gold.Goldscore.Internal.Correction>
-6.2984

> <Gold.Goldscore.Hbonds>
donor molecule, donor type, donor heavy atom, donor atom, acceptor molecule, acceptor atom, score
      P1  H  1931  4507       L1    26  0.77
      L1  H    31    66       P1   302  0.84

> <Gold.Goldscore.Internal.Vdw.Weighted>
-3.1361

> <Gold.Goldscore.Internal.Torsion.Weighted>
-5.3063

> <Gold.Goldscore.External.Vdw.Weighted>
81.7111

> <Gold.Goldscore.Internal.HBond.Weighted>
0.0000

> <Gold.Goldscore.External.HBond.Weighted>
3.2095

> <Gold.Goldscore.Internal.Correction.Weighted>
-6.2984

> <Gold.Protein.RotatedTorsions>
[ 3781 1176 1175 1172 ] final -162.20 input   60.00 | X-H torsion
[ 3847 1247 1246 1244 ] final  -49.83 input   60.00 | X-H torsion
[ 4507 1931 1930 1928 ] final   15.08 input   60.00 | X-H torsion
[ 3677 1070 1069 1066 ] final  138.19 input   60.00 | X-H torsion
[ 3525  925  924  922 ] final  -35.84 input   59.99 | X-H torsion
[ 4531 1957 1955 1953 ] final  116.22 input   60.00 | X-H torsion

> <Gold.Protein.ActiveResidues>
 PHE267  PRO268  MET310  ASP335  TRP336  MET339  TYR343  THR360  PRO361  ILE363 
 PRO371  SER374  ILE375  ASN378  PHE381  TYR383  GLN384  PHE387  LEU408  LEU417 
 MET419  LEU428  TYR466  MET469  ASN472  ASP496  VAL498  LEU499  MET503  HIS524 
 TRP525 

> <Gold.Protein.RotatedAtoms>
   -3.7722  -29.5197  -29.9275 H   0  0  0  0  0  0  0  0  0  0  0  0  # atno 3525 bound_to 925 
  -11.3561  -22.2978  -30.7737 H   0  0  0  0  0  0  0  0  0  0  0  0  # atno 3677 bound_to 1070
   -9.2426  -36.4028  -33.1233 H   0  0  0  0  0  0  0  0  0  0  0  0  # atno 3781 bound_to 1176
  -16.0656  -28.0245  -37.1805 H   0  0  0  0  0  0  0  0  0  0  0  0  # atno 3847 bound_to 1247
  -13.0936  -25.2031  -38.9397 H   0  0  0  0  0  0  0  0  0  0  0  0  # atno 4507 bound_to 1931
   -2.4374  -34.0306  -36.7952 H   0  0  0  0  0  0  0  0  0  0  0  0  # atno 4531 bound_to 1957
  -10.4116  -37.3883  -32.5664 LP  0  0  0  0  0  0  0  0  0  0  0  0  # atno 5205 bound_to 1176
  -10.4621  -36.8454  -34.1056 LP  0  0  0  0  0  0  0  0  0  0  0  0  # atno 5206 bound_to 1176
  -14.7987  -27.3388  -37.9374 LP  0  0  0  0  0  0  0  0  0  0  0  0  # atno 5215 bound_to 1247
  -14.6939  -28.8742  -37.3912 LP  0  0  0  0  0  0  0  0  0  0  0  0  # atno 5216 bound_to 1247
  -13.6014  -24.7004  -40.4017 LP  0  0  0  0  0  0  0  0  0  0  0  0  # atno 5217 bound_to 1931
  -12.4996  -23.8263  -39.5718 LP  0  0  0  0  0  0  0  0  0  0  0  0  # atno 5218 bound_to 1931
  -12.7941  -22.9952  -30.4669 LP  0  0  0  0  0  0  0  0  0  0  0  0  # atno 5224 bound_to 1070
  -11.7080  -23.7455  -31.4282 LP  0  0  0  0  0  0  0  0  0  0  0  0  # atno 5225 bound_to 1070

$$$$
IA_93.cdx|SeH_inactivess_minimized|sdf|172|dock7
  -GOLD-   41821 8323D 1   1.00000     0.00000

 51 51  0  0  0  0  0  0  0  0  1 V2000
   -7.1667  -28.7743  -34.9159 C   0  0  0  0  0  0  0  0  0  0  0  0
   -5.6346  -31.8571  -34.3234 C   0  0  0  0  0  0  0  0  0  0  0  0
   -5.8627  -32.3071  -35.7358 C   0  0  0  0  0  0  0  0  0  0  0  0
   -5.8545  -30.8389  -35.4085 C   0  0  0  0  0  0  0  0  0  0  0  0
  -21.6205  -23.3156  -38.9531 C   0  0  0  0  0  0  0  0  0  0  0  0
  -20.2203  -23.7825  -39.3173 C   0  0  0  0  0  0  0  0  0  0  0  0
  -19.4317  -24.2093  -38.0783 C   0  0  0  0  0  0  0  0  0  0  0  0
  -17.9702  -24.5007  -38.4258 C   0  0  0  0  0  0  0  0  0  0  0  0
  -17.1425  -24.9753  -37.2278 C   0  0  0  0  0  0  0  0  0  0  0  0
  -15.6491  -25.1131  -37.5361 C   0  0  0  0  0  0  0  0  0  0  0  0
  -14.8748  -25.5940  -36.3059 C   0  0  0  0  0  0  0  0  0  0  0  0
  -13.3582  -25.6285  -36.5157 C   0  0  0  0  0  0  0  0  0  0  0  0
  -12.5870  -26.1433  -35.2983 C   0  0  0  0  0  0  0  0  0  0  0  0
  -11.0924  -26.2742  -35.6037 C   0  0  0  0  0  0  0  0  0  0  0  0
  -10.3264  -26.8250  -34.3970 C   0  0  0  0  0  0  0  0  0  0  0  0
   -8.8198  -26.9319  -34.6396 C   0  0  0  0  0  0  0  0  0  0  0  0
   -7.0645  -30.0513  -35.4611 N   0  0  0  0  0  0  0  0  0  0  0  0
   -8.4366  -28.2568  -35.1114 N   0  0  0  0  0  0  0  0  0  0  0  0
   -6.2510  -28.1880  -34.3400 O   0  0  0  0  0  0  0  0  0  0  0  0
   -6.4283  -32.0284  -33.6066 H   0  0  0  0  0  0  0  0  0  0  0  0
   -4.6352  -31.9534  -33.9173 H   0  0  0  0  0  0  0  0  0  0  0  0
   -5.0167  -32.7069  -36.2814 H   0  0  0  0  0  0  0  0  0  0  0  0
   -6.8096  -32.7796  -35.9670 H   0  0  0  0  0  0  0  0  0  0  0  0
   -4.9857  -30.2740  -35.7292 H   0  0  0  0  0  0  0  0  0  0  0  0
  -21.5699  -22.4760  -38.2526 H   0  0  0  0  0  0  0  0  0  0  0  0
  -22.1673  -22.9841  -39.8417 H   0  0  0  0  0  0  0  0  0  0  0  0
  -22.1911  -24.1203  -38.4785 H   0  0  0  0  0  0  0  0  0  0  0  0
  -19.6941  -22.9709  -39.8333 H   0  0  0  0  0  0  0  0  0  0  0  0
  -20.2918  -24.6212  -40.0197 H   0  0  0  0  0  0  0  0  0  0  0  0
  -19.9004  -25.1002  -37.6457 H   0  0  0  0  0  0  0  0  0  0  0  0
  -19.4791  -23.4166  -37.3221 H   0  0  0  0  0  0  0  0  0  0  0  0
  -17.9216  -25.2493  -39.2261 H   0  0  0  0  0  0  0  0  0  0  0  0
  -17.5072  -23.5874  -38.8198 H   0  0  0  0  0  0  0  0  0  0  0  0
  -17.5364  -25.9325  -36.8654 H   0  0  0  0  0  0  0  0  0  0  0  0
  -17.2742  -24.2513  -36.4139 H   0  0  0  0  0  0  0  0  0  0  0  0
  -15.4989  -25.8254  -38.3549 H   0  0  0  0  0  0  0  0  0  0  0  0
  -15.2614  -24.1439  -37.8684 H   0  0  0  0  0  0  0  0  0  0  0  0
  -15.1118  -24.9560  -35.4459 H   0  0  0  0  0  0  0  0  0  0  0  0
  -15.2068  -26.6075  -36.0481 H   0  0  0  0  0  0  0  0  0  0  0  0
  -13.0012  -24.6268  -36.7842 H   0  0  0  0  0  0  0  0  0  0  0  0
  -13.1475  -26.2787  -37.3740 H   0  0  0  0  0  0  0  0  0  0  0  0
  -12.9867  -27.1186  -34.9956 H   0  0  0  0  0  0  0  0  0  0  0  0
  -12.7200  -25.4596  -34.4524 H   0  0  0  0  0  0  0  0  0  0  0  0
  -10.9503  -26.9413  -36.4626 H   0  0  0  0  0  0  0  0  0  0  0  0
  -10.6944  -25.2924  -35.8861 H   0  0  0  0  0  0  0  0  0  0  0  0
  -10.5167  -26.1950  -33.5189 H   0  0  0  0  0  0  0  0  0  0  0  0
  -10.7079  -27.8247  -34.1545 H   0  0  0  0  0  0  0  0  0  0  0  0
   -8.5221  -26.1878  -35.3865 H   0  0  0  0  0  0  0  0  0  0  0  0
   -8.2749  -26.7058  -33.7167 H   0  0  0  0  0  0  0  0  0  0  0  0
   -7.8798  -30.4483  -35.9176 H   0  0  0  0  0  0  0  0  0  0  0  0
   -9.1197  -28.7828  -35.6351 H   0  0  0  0  0  0  0  0  0  0  0  0
  1 17  1  0  0  0  0
  1 18  1  0  0  0  0
  1 19  2  0  0  0  0
  2  3  1  0  0  0  0
  2  4  1  0  0  0  0
  3  4  1  0  0  0  0
  4 17  1  0  0  0  0
  5  6  1  0  0  0  0
  6  7  1  0  0  0  0
  7  8  1  0  0  0  0
  8  9  1  0  0  0  0
  9 10  1  0  0  0  0
 10 11  1  0  0  0  0
 11 12  1  0  0  0  0
 12 13  1  0  0  0  0
 13 14  1  0  0  0  0
 14 15  1  0  0  0  0
 15 16  1  0  0  0  0
 16 18  1  0  0  0  0
  2 20  1  0  0  0  0
  2 21  1  0  0  0  0
  3 22  1  0  0  0  0
  3 23  1  0  0  0  0
  4 24  1  0  0  0  0
  5 25  1  0  0  0  0
  5 26  1  0  0  0  0
  5 27  1  0  0  0  0
  6 28  1  0  0  0  0
  6 29  1  0  0  0  0
  7 30  1  0  0  0  0
  7 31  1  0  0  0  0
  8 32  1  0  0  0  0
  8 33  1  0  0  0  0
  9 34  1  0  0  0  0
  9 35  1  0  0  0  0
 10 36  1  0  0  0  0
 10 37  1  0  0  0  0
 11 38  1  0  0  0  0
 11 39  1  0  0  0  0
 12 40  1  0  0  0  0
 12 41  1  0  0  0  0
 13 42  1  0  0  0  0
 13 43  1  0  0  0  0
 14 44  1  0  0  0  0
 14 45  1  0  0  0  0
 15 46  1  0  0  0  0
 15 47  1  0  0  0  0
 16 48  1  0  0  0  0
 16 49  1  0  0  0  0
 17 50  1  0  0  0  0
 18 51  1  0  0  0  0
M  END
> <Name>
IA_93.cdx

> <SourceTag>
IA_93

> <Gold.Version>
5.2

> <Gold.Id.Protein>
6HGV|6HGV_protein|mol2

> <Gold.Goldscore.Fitness>
59.5457

> <Gold.Goldscore.Internal.Vdw>
-4.1150

> <Gold.Goldscore.Internal.Torsion>
-3.2569

> <Gold.Goldscore.External.Vdw>
45.4570

> <Gold.Goldscore.Internal.HBond>
0.0000

> <Gold.Goldscore.External.HBond>
0.0000

> <Gold.Goldscore.Internal.Correction>
-4.4143

> <Gold.Goldscore.Internal.Vdw.Weighted>
-4.1150

> <Gold.Goldscore.Internal.Torsion.Weighted>
-3.2569

> <Gold.Goldscore.External.Vdw.Weighted>
62.5034

> <Gold.Goldscore.Internal.HBond.Weighted>
0.0000

> <Gold.Goldscore.External.HBond.Weighted>
0.0000

> <Gold.Goldscore.Internal.Correction.Weighted>
-4.4143

> <Gold.Protein.RotatedTorsions>
[ 3781 1176 1175 1172 ] final  -16.31 input   60.00 | X-H torsion
[ 3847 1247 1246 1244 ] final  102.30 input   60.00 | X-H torsion
[ 4507 1931 1930 1928 ] final  103.28 input   60.00 | X-H torsion
[ 3677 1070 1069 1066 ] final -101.03 input   60.00 | X-H torsion
[ 3525  925  924  922 ] final   62.37 input   59.99 | X-H torsion
[ 4531 1957 1955 1953 ] final  -58.13 input   60.00 | X-H torsion

> <Gold.Protein.ActiveResidues>
 PHE267  PRO268  MET310  ASP335  TRP336  MET339  TYR343  THR360  PRO361  ILE363 
 PRO371  SER374  ILE375  ASN378  PHE381  TYR383  GLN384  PHE387  LEU408  LEU417 
 MET419  LEU428  TYR466  MET469  ASN472  ASP496  VAL498  LEU499  MET503  HIS524 
 TRP525 

> <Gold.Protein.RotatedAtoms>
   -2.7699  -29.8711  -30.8630 H   0  0  0  0  0  0  0  0  0  0  0  0  # atno 3525 bound_to 925 
  -11.7201  -23.7469  -31.4201 H   0  0  0  0  0  0  0  0  0  0  0  0  # atno 3677 bound_to 1070
  -10.7093  -37.0988  -33.8776 H   0  0  0  0  0  0  0  0  0  0  0  0  # atno 3781 bound_to 1176
  -14.3854  -28.5398  -37.6429 H   0  0  0  0  0  0  0  0  0  0  0  0  # atno 3847 bound_to 1247
  -12.4334  -24.0975  -39.1394 H   0  0  0  0  0  0  0  0  0  0  0  0  # atno 4507 bound_to 1931
   -2.0089  -32.2108  -36.8452 H   0  0  0  0  0  0  0  0  0  0  0  0  # atno 4531 bound_to 1957
   -9.3312  -36.3088  -33.5241 LP  0  0  0  0  0  0  0  0  0  0  0  0  # atno 5205 bound_to 1176
  -10.0655  -37.2240  -32.3883 LP  0  0  0  0  0  0  0  0  0  0  0  0  # atno 5206 bound_to 1176
  -15.9036  -28.5031  -37.0583 LP  0  0  0  0  0  0  0  0  0  0  0  0  # atno 5215 bound_to 1247
  -15.2811  -27.1909  -37.8047 LP  0  0  0  0  0  0  0  0  0  0  0  0  # atno 5216 bound_to 1247
  -13.4262  -25.3778  -39.2915 LP  0  0  0  0  0  0  0  0  0  0  0  0  # atno 5217 bound_to 1931
  -13.3396  -24.2622  -40.4809 LP  0  0  0  0  0  0  0  0  0  0  0  0  # atno 5218 bound_to 1931
  -11.3444  -22.2977  -30.7824 LP  0  0  0  0  0  0  0  0  0  0  0  0  # atno 5224 bound_to 1070
  -12.7912  -22.9837  -30.4618 LP  0  0  0  0  0  0  0  0  0  0  0  0  # atno 5225 bound_to 1070

$$$$
IA_36|SeH_inactivess_minimized|sdf|122|dock1
  -GOLD-   4172121243D 1   1.00000     0.00000

 38 39  0  0  0  0  0  0  0  0  1 V2000
  -19.1017  -24.1308  -37.9472 C   0  0  0  0  0  0  0  0  0  0  0  0
  -18.9414  -25.0933  -36.9505 C   0  0  0  0  0  0  0  0  0  0  0  0
  -18.0118  -23.3623  -38.3564 C   0  0  0  0  0  0  0  0  0  0  0  0
  -17.6911  -25.2874  -36.3630 C   0  0  0  0  0  0  0  0  0  0  0  0
  -16.7616  -23.5567  -37.7690 C   0  0  0  0  0  0  0  0  0  0  0  0
  -16.6013  -24.5190  -36.7723 C   0  0  0  0  0  0  0  0  0  0  0  0
  -14.7592  -25.9479  -35.7992 C   0  0  0  0  0  0  0  0  0  0  0  0
   -9.8348  -25.8949  -34.9770 C   0  0  0  0  0  0  0  0  0  0  0  0
  -10.6290  -26.3138  -36.2103 C   0  0  0  0  0  0  0  0  0  0  0  0
  -10.7435  -25.3569  -33.8760 C   0  0  0  0  0  0  0  0  0  0  0  0
  -11.7338  -27.3102  -35.8584 C   0  0  0  0  0  0  0  0  0  0  0  0
  -11.8483  -26.3518  -33.5202 C   0  0  0  0  0  0  0  0  0  0  0  0
  -12.6537  -26.7967  -34.7457 C   0  0  0  0  0  0  0  0  0  0  0  0
  -15.6121  -22.7190  -38.2271 C   0  0  0  0  0  0  0  0  0  0  0  0
  -15.3420  -24.7310  -36.1642 N   0  0  0  0  0  0  0  0  0  0  0  0
  -13.5033  -25.7291  -35.2250 N   0  0  0  0  0  0  0  0  0  0  0  0
  -15.2472  -27.0660  -35.9451 O   0  0  0  0  0  0  0  0  0  0  0  0
  -15.4269  -21.6403  -37.3202 O   0  0  0  0  0  0  0  0  0  0  0  0
  -20.0752  -23.9800  -38.4046 H   0  0  0  0  0  0  0  0  0  0  0  0
  -19.7900  -25.6918  -36.6320 H   0  0  0  0  0  0  0  0  0  0  0  0
  -18.1469  -22.6151  -39.1338 H   0  0  0  0  0  0  0  0  0  0  0  0
  -17.5793  -26.0407  -35.5873 H   0  0  0  0  0  0  0  0  0  0  0  0
   -9.2724  -26.7564  -34.5962 H   0  0  0  0  0  0  0  0  0  0  0  0
   -9.0991  -25.1313  -35.2539 H   0  0  0  0  0  0  0  0  0  0  0  0
  -11.0679  -25.4262  -36.6819 H   0  0  0  0  0  0  0  0  0  0  0  0
   -9.9529  -26.7620  -36.9474 H   0  0  0  0  0  0  0  0  0  0  0  0
  -10.1473  -25.1369  -32.9831 H   0  0  0  0  0  0  0  0  0  0  0  0
  -11.1896  -24.4089  -34.2003 H   0  0  0  0  0  0  0  0  0  0  0  0
  -12.3147  -27.5410  -36.7594 H   0  0  0  0  0  0  0  0  0  0  0  0
  -11.2699  -28.2494  -35.5309 H   0  0  0  0  0  0  0  0  0  0  0  0
  -11.3912  -27.2348  -33.0555 H   0  0  0  0  0  0  0  0  0  0  0  0
  -12.5103  -25.9052  -32.7684 H   0  0  0  0  0  0  0  0  0  0  0  0
  -13.3363  -27.6013  -34.4493 H   0  0  0  0  0  0  0  0  0  0  0  0
  -14.6864  -23.3071  -38.2714 H   0  0  0  0  0  0  0  0  0  0  0  0
  -15.7939  -22.3113  -39.2299 H   0  0  0  0  0  0  0  0  0  0  0  0
  -14.7942  -23.8968  -35.9689 H   0  0  0  0  0  0  0  0  0  0  0  0
  -13.1717  -24.7741  -35.1404 H   0  0  0  0  0  0  0  0  0  0  0  0
  -14.7501  -21.0619  -37.7074 H   0  0  0  0  0  0  0  0  0  0  0  0
  1  2  1  0  0  0  0
  1  3  2  0  0  0  0
  2  4  2  0  0  0  0
  3  5  1  0  0  0  0
  4  6  1  0  0  0  0
  5  6  2  0  0  0  0
  5 14  1  0  0  0  0
  6 15  1  0  0  0  0
  7 15  1  0  0  0  0
  7 16  1  0  0  0  0
  7 17  2  0  0  0  0
  8  9  1  0  0  0  0
  8 10  1  0  0  0  0
  9 11  1  0  0  0  0
 10 12  1  0  0  0  0
 11 13  1  0  0  0  0
 12 13  1  0  0  0  0
 13 16  1  0  0  0  0
 14 18  1  0  0  0  0
  1 19  1  0  0  0  0
  2 20  1  0  0  0  0
  3 21  1  0  0  0  0
  4 22  1  0  0  0  0
  8 23  1  0  0  0  0
  8 24  1  0  0  0  0
  9 25  1  0  0  0  0
  9 26  1  0  0  0  0
 10 27  1  0  0  0  0
 10 28  1  0  0  0  0
 11 29  1  0  0  0  0
 11 30  1  0  0  0  0
 12 31  1  0  0  0  0
 12 32  1  0  0  0  0
 13 33  1  0  0  0  0
 14 34  1  0  0  0  0
 14 35  1  0  0  0  0
 15 36  1  0  0  0  0
 16 37  1  0  0  0  0
 18 38  1  0  0  0  0
M  END
> <Name>
IA_36

> <SourceTag>
IA_36

> <Gold.Version>
5.2

> <Gold.Id.Protein>
6HGV|6HGV_protein|mol2

> <Gold.Goldscore.Fitness>
54.5286

> <Gold.Goldscore.Internal.Vdw>
-2.1930

> <Gold.Goldscore.Internal.Torsion>
-3.7058

> <Gold.Goldscore.External.Vdw>
37.8204

> <Gold.Goldscore.Internal.HBond>
0.0000

> <Gold.Goldscore.External.HBond>
3.2404

> <Gold.Goldscore.Internal.Correction>
-5.1840

> <Gold.Goldscore.Hbonds>
donor molecule, donor type, donor heavy atom, donor atom, acceptor molecule, acceptor atom, score
      L1  H    15    36       P1   853  0.43
      L1  H    16    37       P1   853  0.08
      L1  H    18    38       P1   302  0.09

> <Gold.Goldscore.Internal.Vdw.Weighted>
-2.1930

> <Gold.Goldscore.Internal.Torsion.Weighted>
-3.7058

> <Gold.Goldscore.External.Vdw.Weighted>
52.0030

> <Gold.Goldscore.Internal.HBond.Weighted>
0.0000

> <Gold.Goldscore.External.HBond.Weighted>
3.2404

> <Gold.Goldscore.Internal.Correction.Weighted>
-5.1840

> <Gold.Protein.RotatedTorsions>
[ 3781 1176 1175 1172 ] final  -58.05 input   60.00 | X-H torsion
[ 3847 1247 1246 1244 ] final   84.61 input   60.00 | X-H torsion
[ 4507 1931 1930 1928 ] final   32.66 input   60.00 | X-H torsion
[ 3677 1070 1069 1066 ] final  -82.75 input   60.00 | X-H torsion
[ 3525  925  924  922 ] final    8.77 input   59.99 | X-H torsion
[ 4531 1957 1955 1953 ] final   17.51 input   60.00 | X-H torsion

> <Gold.Protein.ActiveResidues>
 PHE267  PRO268  MET310  ASP335  TRP336  MET339  TYR343  THR360  PRO361  ILE363 
 PRO371  SER374  ILE375  ASN378  PHE381  TYR383  GLN384  PHE387  LEU408  LEU417 
 MET419  LEU428  TYR466  MET469  ASN472  ASP496  VAL498  LEU499  MET503  HIS524 
 TRP525 

> <Gold.Protein.RotatedAtoms>
   -3.5099  -29.5738  -30.5856 H   0  0  0  0  0  0  0  0  0  0  0  0  # atno 3525 bound_to 925 
  -11.9918  -23.8332  -31.3356 H   0  0  0  0  0  0  0  0  0  0  0  0  # atno 3677 bound_to 1070
  -10.2581  -36.6936  -34.1557 H   0  0  0  0  0  0  0  0  0  0  0  0  # atno 3781 bound_to 1176
  -14.5318  -28.7467  -37.5063 H   0  0  0  0  0  0  0  0  0  0  0  0  # atno 3847 bound_to 1247
  -12.9014  -25.0225  -38.8285 H   0  0  0  0  0  0  0  0  0  0  0  0  # atno 4507 bound_to 1931
   -3.0126  -32.7380  -36.6636 H   0  0  0  0  0  0  0  0  0  0  0  0  # atno 4531 bound_to 1957
   -9.2607  -36.5013  -32.8843 LP  0  0  0  0  0  0  0  0  0  0  0  0  # atno 5205 bound_to 1176
  -10.5904  -37.4395  -32.7481 LP  0  0  0  0  0  0  0  0  0  0  0  0  # atno 5206 bound_to 1176
  -16.0280  -28.2460  -37.1078 LP  0  0  0  0  0  0  0  0  0  0  0  0  # atno 5215 bound_to 1247
  -15.0092  -27.2397  -37.8927 LP  0  0  0  0  0  0  0  0  0  0  0  0  # atno 5216 bound_to 1247
  -13.6803  -24.9353  -40.2546 LP  0  0  0  0  0  0  0  0  0  0  0  0  # atno 5217 bound_to 1931
  -12.6142  -23.7732  -39.8308 LP  0  0  0  0  0  0  0  0  0  0  0  0  # atno 5218 bound_to 1931
  -11.1810  -22.4726  -30.9624 LP  0  0  0  0  0  0  0  0  0  0  0  0  # atno 5224 bound_to 1070
  -12.6809  -22.7219  -30.3669 LP  0  0  0  0  0  0  0  0  0  0  0  0  # atno 5225 bound_to 1070

$$$$
IA_56.cdx|SeH_inactivess_minimized|sdf|141|dock6
  -GOLD-   4172121543D 1   1.00000     0.00000

 26 25  0  0  0  0  0  0  0  0  1 V2000
  -13.4624  -25.8141  -37.0123 C   0  0  0  0  0  0  0  0  0  0  0  0
  -10.6562  -25.5196  -33.5966 C   0  0  0  0  0  0  0  0  0  0  0  0
  -18.1021  -25.6935  -37.8150 C   0  0  0  0  0  0  0  0  0  0  0  0
  -10.2233  -25.5733  -35.0548 C   0  0  0  0  0  0  0  0  0  0  0  0
  -16.9145  -25.2325  -36.9820 C   0  0  0  0  0  0  0  0  0  0  0  0
  -11.2492  -26.2594  -35.9489 C   0  0  0  0  0  0  0  0  0  0  0  0
  -15.6670  -24.9844  -37.8215 C   0  0  0  0  0  0  0  0  0  0  0  0
  -12.4312  -25.4533  -36.1490 N   0  0  0  0  0  0  0  0  0  0  0  0
  -14.4765  -24.8598  -37.0138 N   0  0  0  0  0  0  0  0  0  0  0  0
  -13.4777  -26.8430  -37.6866 O   0  0  0  0  0  0  0  0  0  0  0  0
  -11.5997  -24.9752  -33.4874 H   0  0  0  0  0  0  0  0  0  0  0  0
  -10.8037  -26.5331  -33.2099 H   0  0  0  0  0  0  0  0  0  0  0  0
   -9.9013  -25.0295  -32.9739 H   0  0  0  0  0  0  0  0  0  0  0  0
  -18.3006  -24.9957  -38.6346 H   0  0  0  0  0  0  0  0  0  0  0  0
  -17.8977  -26.6771  -38.2500 H   0  0  0  0  0  0  0  0  0  0  0  0
  -19.0078  -25.7775  -37.2065 H   0  0  0  0  0  0  0  0  0  0  0  0
   -9.2756  -26.1206  -35.1188 H   0  0  0  0  0  0  0  0  0  0  0  0
  -10.0342  -24.5541  -35.4122 H   0  0  0  0  0  0  0  0  0  0  0  0
  -16.6908  -26.0027  -36.2346 H   0  0  0  0  0  0  0  0  0  0  0  0
  -17.1888  -24.3215  -36.4370 H   0  0  0  0  0  0  0  0  0  0  0  0
  -10.8185  -26.4466  -36.9375 H   0  0  0  0  0  0  0  0  0  0  0  0
  -11.5651  -27.2188  -35.5275 H   0  0  0  0  0  0  0  0  0  0  0  0
  -15.5032  -25.8229  -38.5055 H   0  0  0  0  0  0  0  0  0  0  0  0
  -15.7645  -24.0719  -38.4181 H   0  0  0  0  0  0  0  0  0  0  0  0
  -12.5141  -24.5814  -35.6354 H   0  0  0  0  0  0  0  0  0  0  0  0
  -14.3993  -24.0633  -36.3890 H   0  0  0  0  0  0  0  0  0  0  0  0
  1  8  1  0  0  0  0
  1  9  1  0  0  0  0
  1 10  2  0  0  0  0
  2  4  1  0  0  0  0
  3  5  1  0  0  0  0
  4  6  1  0  0  0  0
  5  7  1  0  0  0  0
  6  8  1  0  0  0  0
  7  9  1  0  0  0  0
  2 11  1  0  0  0  0
  2 12  1  0  0  0  0
  2 13  1  0  0  0  0
  3 14  1  0  0  0  0
  3 15  1  0  0  0  0
  3 16  1  0  0  0  0
  4 17  1  0  0  0  0
  4 18  1  0  0  0  0
  5 19  1  0  0  0  0
  5 20  1  0  0  0  0
  6 21  1  0  0  0  0
  6 22  1  0  0  0  0
  7 23  1  0  0  0  0
  7 24  1  0  0  0  0
  8 25  1  0  0  0  0
  9 26  1  0  0  0  0
M  END
> <Name>
IA_56.cdx

> <SourceTag>
IA_56

> <Gold.Version>
5.2

> <Gold.Id.Protein>
6HGV|6HGV_protein|mol2

> <Gold.Goldscore.Fitness>
42.3046

> <Gold.Goldscore.Internal.Vdw>
-2.3740

> <Gold.Goldscore.Internal.Torsion>
-1.7651

> <Gold.Goldscore.External.Vdw>
27.0017

> <Gold.Goldscore.Internal.HBond>
0.0000

> <Gold.Goldscore.External.HBond>
6.9916

> <Gold.Goldscore.Internal.Correction>
-2.3247

> <Gold.Goldscore.Hbonds>
donor molecule, donor type, donor heavy atom, donor atom, acceptor molecule, acceptor atom, score
      P1  H  1247  3847       L1    10  0.12
      L1  H     8    25       P1   853  0.13
      L1  H     9    26       P1   853  0.99

> <Gold.Goldscore.Internal.Vdw.Weighted>
-2.3740

> <Gold.Goldscore.Internal.Torsion.Weighted>
-1.7651

> <Gold.Goldscore.External.Vdw.Weighted>
37.1273

> <Gold.Goldscore.Internal.HBond.Weighted>
0.0000

> <Gold.Goldscore.External.HBond.Weighted>
6.9916

> <Gold.Goldscore.Internal.Correction.Weighted>
-2.3247

> <Gold.Protein.RotatedTorsions>
[ 3781 1176 1175 1172 ] final  -96.30 input   60.00 | X-H torsion
[ 3847 1247 1246 1244 ] final  139.60 input   60.00 | X-H torsion
[ 4507 1931 1930 1928 ] final   96.17 input   60.00 | X-H torsion
[ 3677 1070 1069 1066 ] final -152.34 input   60.00 | X-H torsion
[ 3525  925  924  922 ] final  -48.46 input   59.99 | X-H torsion
[ 4531 1957 1955 1953 ] final   50.09 input   60.00 | X-H torsion

> <Gold.Protein.ActiveResidues>
 PHE267  PRO268  MET310  ASP335  TRP336  MET339  TYR343  THR360  PRO361  ILE363 
 PRO371  SER374  ILE375  ASN378  PHE381  TYR383  GLN384  PHE387  LEU408  LEU417 
 MET419  LEU428  TYR466  MET469  ASN472  ASP496  VAL498  LEU499  MET503  HIS524 
 TRP525 

> <Gold.Protein.RotatedAtoms>
   -3.7562  -29.5453  -29.7238 H   0  0  0  0  0  0  0  0  0  0  0  0  # atno 3525 bound_to 925 
  -11.1591  -23.1643  -31.3641 H   0  0  0  0  0  0  0  0  0  0  0  0  # atno 3677 bound_to 1070
   -9.7385  -36.4004  -34.0129 H   0  0  0  0  0  0  0  0  0  0  0  0  # atno 3781 bound_to 1176
  -14.3334  -27.9898  -37.8737 H   0  0  0  0  0  0  0  0  0  0  0  0  # atno 3847 bound_to 1247
  -12.4444  -24.1804  -39.0588 H   0  0  0  0  0  0  0  0  0  0  0  0  # atno 4507 bound_to 1931
   -3.0909  -33.2574  -36.6576 H   0  0  0  0  0  0  0  0  0  0  0  0  # atno 4531 bound_to 1957
   -9.5451  -36.8497  -32.4609 LP  0  0  0  0  0  0  0  0  0  0  0  0  # atno 5205 bound_to 1176
  -10.8291  -37.3863  -33.3153 LP  0  0  0  0  0  0  0  0  0  0  0  0  # atno 5206 bound_to 1176
  -15.4416  -28.8892  -37.0920 LP  0  0  0  0  0  0  0  0  0  0  0  0  # atno 5215 bound_to 1247
  -15.7954  -27.3588  -37.5385 LP  0  0  0  0  0  0  0  0  0  0  0  0  # atno 5216 bound_to 1247
  -13.4884  -25.3838  -39.3904 LP  0  0  0  0  0  0  0  0  0  0  0  0  # atno 5217 bound_to 1931
  -13.2664  -24.1728  -40.4632 LP  0  0  0  0  0  0  0  0  0  0  0  0  # atno 5218 bound_to 1931
  -12.0551  -22.2193  -30.3883 LP  0  0  0  0  0  0  0  0  0  0  0  0  # atno 5224 bound_to 1070
  -12.6454  -23.6488  -30.9123 LP  0  0  0  0  0  0  0  0  0  0  0  0  # atno 5225 bound_to 1070

$$$$
IA_150.cdx|SeH_inactivess_minimized|sdf|52|dock9
  -GOLD-   4172119473D 1   1.00000     0.00000

 30 31  0  0  0  0  0  0  0  0  1 V2000
   -9.3380  -26.0834  -34.8489 C   0  0  0  0  0  0  0  0  0  0  0  0
   -9.9516  -26.8466  -35.8421 C   0  0  0  0  0  0  0  0  0  0  0  0
  -10.1080  -25.2636  -34.0238 C   0  0  0  0  0  0  0  0  0  0  0  0
  -17.7251  -24.1141  -38.4118 C   0  0  0  0  0  0  0  0  0  0  0  0
  -12.1051  -25.9702  -35.1853 C   0  0  0  0  0  0  0  0  0  0  0  0
  -16.6032  -24.6093  -39.0765 C   0  0  0  0  0  0  0  0  0  0  0  0
  -11.3351  -26.7900  -36.0104 C   0  0  0  0  0  0  0  0  0  0  0  0
  -11.4915  -25.2071  -34.1920 C   0  0  0  0  0  0  0  0  0  0  0  0
  -16.6256  -24.7642  -40.4625 C   0  0  0  0  0  0  0  0  0  0  0  0
  -18.8918  -23.9286  -40.5193 C   0  0  0  0  0  0  0  0  0  0  0  0
  -18.8693  -23.7738  -39.1332 C   0  0  0  0  0  0  0  0  0  0  0  0
  -17.7699  -24.4238  -41.1839 C   0  0  0  0  0  0  0  0  0  0  0  0
  -13.5481  -25.9114  -35.3604 C   0  0  0  0  0  0  0  0  0  0  0  0
  -15.3670  -25.3697  -37.0084 C   0  0  0  0  0  0  0  0  0  0  0  0
  -15.4447  -24.9544  -38.3420 N   0  0  0  0  0  0  0  0  0  0  0  0
  -14.0175  -25.4748  -36.6137 N   0  0  0  0  0  0  0  0  0  0  0  0
  -14.3078  -26.2616  -34.4409 O   0  0  0  0  0  0  0  0  0  0  0  0
  -16.3102  -25.6135  -36.2602 O   0  0  0  0  0  0  0  0  0  0  0  0
  -11.9147  -27.5277  -36.9682 F   0  0  0  0  0  0  0  0  0  0  0  0
  -12.2221  -24.4159  -33.3935 F   0  0  0  0  0  0  0  0  0  0  0  0
  -15.5442  -25.2417  -41.0981 F   0  0  0  0  0  0  0  0  0  0  0  0
  -19.9930  -23.6009  -41.2130 F   0  0  0  0  0  0  0  0  0  0  0  0
  -20.2507  -23.1634  -38.3064 Cl  0  0  0  0  0  0  0  0  0  0  0  0
  -17.7972  -24.6152  -42.8953 Cl  0  0  0  0  0  0  0  0  0  0  0  0
   -8.2608  -26.1278  -34.7178 H   0  0  0  0  0  0  0  0  0  0  0  0
   -9.3522  -27.4848  -36.4848 H   0  0  0  0  0  0  0  0  0  0  0  0
   -9.6305  -24.6691  -33.2505 H   0  0  0  0  0  0  0  0  0  0  0  0
  -17.7042  -23.9944  -37.3302 H   0  0  0  0  0  0  0  0  0  0  0  0
  -14.5660  -24.8908  -38.8499 H   0  0  0  0  0  0  0  0  0  0  0  0
  -13.3168  -25.2100  -37.2995 H   0  0  0  0  0  0  0  0  0  0  0  0
  1  2  2  0  0  0  0
  1  3  1  0  0  0  0
  2  7  1  0  0  0  0
  3  8  2  0  0  0  0
  4  6  2  0  0  0  0
  4 11  1  0  0  0  0
  5  7  2  0  0  0  0
  5  8  1  0  0  0  0
  5 13  1  0  0  0  0
  6  9  1  0  0  0  0
  6 15  1  0  0  0  0
  7 19  1  0  0  0  0
  8 20  1  0  0  0  0
  9 12  2  0  0  0  0
  9 21  1  0  0  0  0
 10 11  2  0  0  0  0
 10 12  1  0  0  0  0
 10 22  1  0  0  0  0
 11 23  1  0  0  0  0
 12 24  1  0  0  0  0
 13 16  1  0  0  0  0
 13 17  2  0  0  0  0
 14 15  1  0  0  0  0
 14 16  1  0  0  0  0
 14 18  2  0  0  0  0
  1 25  1  0  0  0  0
  2 26  1  0  0  0  0
  3 27  1  0  0  0  0
  4 28  1  0  0  0  0
 15 29  1  0  0  0  0
 16 30  1  0  0  0  0
M  END
> <Name>
IA_150.cdx

> <SourceTag>
IA_150

> <Gold.Version>
5.2

> <Gold.Id.Protein>
6HGV|6HGV_protein|mol2

> <Gold.Goldscore.Fitness>
59.5750

> <Gold.Goldscore.Internal.Vdw>
-4.5493

> <Gold.Goldscore.Internal.Torsion>
-6.5927

> <Gold.Goldscore.External.Vdw>
42.1009

> <Gold.Goldscore.Internal.HBond>
0.0000

> <Gold.Goldscore.External.HBond>
2.2679

> <Gold.Goldscore.Internal.Correction>
-10.5602

> <Gold.Goldscore.Hbonds>
donor molecule, donor type, donor heavy atom, donor atom, acceptor molecule, acceptor atom, score
      L1  H    15    29       P1  1931  1.00
      L1  H    16    30       P1  1931  0.13

> <Gold.Goldscore.Internal.Vdw.Weighted>
-4.5493

> <Gold.Goldscore.Internal.Torsion.Weighted>
-6.5927

> <Gold.Goldscore.External.Vdw.Weighted>
57.8888

> <Gold.Goldscore.Internal.HBond.Weighted>
0.0000

> <Gold.Goldscore.External.HBond.Weighted>
2.2679

> <Gold.Goldscore.Internal.Correction.Weighted>
-10.5602

> <Gold.Protein.RotatedTorsions>
[ 3781 1176 1175 1172 ] final  -44.82 input   60.00 | X-H torsion
[ 3847 1247 1246 1244 ] final  139.68 input   60.00 | X-H torsion
[ 4507 1931 1930 1928 ] final  154.81 input   60.00 | X-H torsion
[ 3677 1070 1069 1066 ] final -169.52 input   60.00 | X-H torsion
[ 3525  925  924  922 ] final  122.96 input   59.99 | X-H torsion
[ 4531 1957 1955 1953 ] final  -73.37 input   60.00 | X-H torsion

> <Gold.Protein.ActiveResidues>
 PHE267  PRO268  MET310  ASP335  TRP336  MET339  TYR343  THR360  PRO361  ILE363 
 PRO371  SER374  ILE375  ASN378  PHE381  TYR383  GLN384  PHE387  LEU408  LEU417 
 MET419  LEU428  TYR466  MET469  ASN472  ASP496  VAL498  LEU499  MET503  HIS524 
 TRP525 

> <Gold.Protein.RotatedAtoms>
   -2.1056  -30.2135  -30.2855 H   0  0  0  0  0  0  0  0  0  0  0  0  # atno 3525 bound_to 925 
  -11.0944  -22.9155  -31.2542 H   0  0  0  0  0  0  0  0  0  0  0  0  # atno 3677 bound_to 1070
  -10.4267  -36.8216  -34.1141 H   0  0  0  0  0  0  0  0  0  0  0  0  # atno 3781 bound_to 1176
  -14.3337  -27.9884  -37.8741 H   0  0  0  0  0  0  0  0  0  0  0  0  # atno 3847 bound_to 1247
  -12.6327  -23.7787  -39.8612 H   0  0  0  0  0  0  0  0  0  0  0  0  # atno 4507 bound_to 1931
   -1.7773  -32.2879  -36.8906 H   0  0  0  0  0  0  0  0  0  0  0  0  # atno 4531 bound_to 1957
   -9.2378  -36.4123  -33.0812 LP  0  0  0  0  0  0  0  0  0  0  0  0  # atno 5205 bound_to 1176
  -10.4435  -37.3995  -32.5930 LP  0  0  0  0  0  0  0  0  0  0  0  0  # atno 5206 bound_to 1176
  -15.4403  -28.8897  -37.0923 LP  0  0  0  0  0  0  0  0  0  0  0  0  # atno 5215 bound_to 1247
  -15.7964  -27.3596  -37.5378 LP  0  0  0  0  0  0  0  0  0  0  0  0  # atno 5216 bound_to 1247
  -12.8790  -24.9989  -38.8132 LP  0  0  0  0  0  0  0  0  0  0  0  0  # atno 5217 bound_to 1931
  -13.6861  -24.9622  -40.2323 LP  0  0  0  0  0  0  0  0  0  0  0  0  # atno 5218 bound_to 1931
  -12.3047  -22.3372  -30.3328 LP  0  0  0  0  0  0  0  0  0  0  0  0  # atno 5224 bound_to 1070
  -12.4609  -23.7815  -31.0785 LP  0  0  0  0  0  0  0  0  0  0  0  0  # atno 5225 bound_to 1070

$$$$
IA_170.cdx|SeH_inactivess_minimized|sdf|73|dock10
  -GOLD-   4172120133D 1   1.00000     0.00000

 32 33  0  0  0  0  0  0  0  0  1 V2000
  -17.0919  -22.7270  -41.0103 C   0  0  0  0  0  0  0  0  0  0  0  0
  -16.1264  -24.8053  -40.2806 C   0  0  0  0  0  0  0  0  0  0  0  0
  -11.5850  -25.1475  -34.4469 C   0  0  0  0  0  0  0  0  0  0  0  0
  -11.1244  -26.8956  -36.0332 C   0  0  0  0  0  0  0  0  0  0  0  0
  -17.2810  -23.3128  -42.2516 C   0  0  0  0  0  0  0  0  0  0  0  0
  -16.3589  -25.2983  -41.5545 C   0  0  0  0  0  0  0  0  0  0  0  0
  -10.2442  -25.1834  -34.0995 C   0  0  0  0  0  0  0  0  0  0  0  0
   -9.8040  -26.8530  -35.6151 C   0  0  0  0  0  0  0  0  0  0  0  0
  -16.5029  -23.4942  -40.0115 C   0  0  0  0  0  0  0  0  0  0  0  0
  -12.0254  -26.0231  -35.4331 C   0  0  0  0  0  0  0  0  0  0  0  0
  -15.0343  -24.5738  -37.2059 C   0  0  0  0  0  0  0  0  0  0  0  0
  -16.2737  -22.9090  -38.6480 C   0  0  0  0  0  0  0  0  0  0  0  0
  -13.4685  -26.0272  -35.8477 C   0  0  0  0  0  0  0  0  0  0  0  0
  -16.9285  -24.5833  -42.5505 N   0  0  0  0  0  0  0  0  0  0  0  0
   -9.3391  -26.0166  -34.6602 N   0  0  0  0  0  0  0  0  0  0  0  0
  -15.0853  -23.4529  -38.0162 N   0  0  0  0  0  0  0  0  0  0  0  0
  -13.7878  -24.9078  -36.7120 N   0  0  0  0  0  0  0  0  0  0  0  0
  -16.3503  -25.5339  -36.7890 S   0  0  0  0  0  0  0  0  0  0  0  0
  -17.3960  -21.7010  -40.8327 H   0  0  0  0  0  0  0  0  0  0  0  0
  -15.6650  -25.4287  -39.5224 H   0  0  0  0  0  0  0  0  0  0  0  0
  -12.2628  -24.4554  -33.9588 H   0  0  0  0  0  0  0  0  0  0  0  0
  -11.4375  -27.5899  -36.8054 H   0  0  0  0  0  0  0  0  0  0  0  0
  -17.7352  -22.7563  -43.0650 H   0  0  0  0  0  0  0  0  0  0  0  0
  -16.0835  -26.3149  -41.8149 H   0  0  0  0  0  0  0  0  0  0  0  0
   -9.8506  -24.5214  -33.3350 H   0  0  0  0  0  0  0  0  0  0  0  0
   -9.0621  -27.5131  -36.0520 H   0  0  0  0  0  0  0  0  0  0  0  0
  -16.1554  -21.8217  -38.7093 H   0  0  0  0  0  0  0  0  0  0  0  0
  -17.1243  -23.1070  -37.9874 H   0  0  0  0  0  0  0  0  0  0  0  0
  -13.7128  -26.9494  -36.3861 H   0  0  0  0  0  0  0  0  0  0  0  0
  -14.1281  -25.9754  -34.9752 H   0  0  0  0  0  0  0  0  0  0  0  0
  -14.2232  -22.9512  -38.1966 H   0  0  0  0  0  0  0  0  0  0  0  0
  -13.0156  -24.3064  -36.9830 H   0  0  0  0  0  0  0  0  0  0  0  0
  1  5  1  0  0  0  0
  1  9  2  0  0  0  0
  2  6  2  0  0  0  0
  2  9  1  0  0  0  0
  3  7  1  0  0  0  0
  3 10  2  0  0  0  0
  4  8  2  0  0  0  0
  4 10  1  0  0  0  0
  5 14  2  0  0  0  0
  6 14  1  0  0  0  0
  7 15  2  0  0  0  0
  8 15  1  0  0  0  0
  9 12  1  0  0  0  0
 10 13  1  0  0  0  0
 11 16  1  0  0  0  0
 11 17  1  0  0  0  0
 11 18  2  0  0  0  0
 12 16  1  0  0  0  0
 13 17  1  0  0  0  0
  1 19  1  0  0  0  0
  2 20  1  0  0  0  0
  3 21  1  0  0  0  0
  4 22  1  0  0  0  0
  5 23  1  0  0  0  0
  6 24  1  0  0  0  0
  7 25  1  0  0  0  0
  8 26  1  0  0  0  0
 12 27  1  0  0  0  0
 12 28  1  0  0  0  0
 13 29  1  0  0  0  0
 13 30  1  0  0  0  0
 16 31  1  0  0  0  0
 17 32  1  0  0  0  0
M  END
> <Name>
IA_170.cdx

> <SourceTag>
IA_170

> <Gold.Version>
5.2

> <Gold.Id.Protein>
6HGV|6HGV_protein|mol2

> <Gold.Goldscore.Fitness>
60.5999

> <Gold.Goldscore.Internal.Vdw>
-0.6652

> <Gold.Goldscore.Internal.Torsion>
-1.9201

> <Gold.Goldscore.External.Vdw>
45.4221

> <Gold.Goldscore.Internal.HBond>
0.0000

> <Gold.Goldscore.External.HBond>
0.5160

> <Gold.Goldscore.Internal.Correction>
-0.2139

> <Gold.Goldscore.Hbonds>
donor molecule, donor type, donor heavy atom, donor atom, acceptor molecule, acceptor atom, score
      P1  H  1247  3847       L1    18  0.52

> <Gold.Goldscore.Internal.Vdw.Weighted>
-0.6652

> <Gold.Goldscore.Internal.Torsion.Weighted>
-1.9201

> <Gold.Goldscore.External.Vdw.Weighted>
62.4553

> <Gold.Goldscore.Internal.HBond.Weighted>
0.0000

> <Gold.Goldscore.External.HBond.Weighted>
0.5160

> <Gold.Goldscore.Internal.Correction.Weighted>
-0.2139

> <Gold.Protein.RotatedTorsions>
[ 3781 1176 1175 1172 ] final  -84.38 input   60.00 | X-H torsion
[ 3847 1247 1246 1244 ] final -110.45 input   60.00 | X-H torsion
[ 4507 1931 1930 1928 ] final -140.35 input   60.00 | X-H torsion
[ 3677 1070 1069 1066 ] final  -85.15 input   60.00 | X-H torsion
[ 3525  925  924  922 ] final   52.75 input   59.99 | X-H torsion
[ 4531 1957 1955 1953 ] final  -46.09 input   60.00 | X-H torsion

> <Gold.Protein.ActiveResidues>
 PHE267  PRO268  MET310  ASP335  TRP336  MET339  TYR343  THR360  PRO361  ILE363 
 PRO371  SER374  ILE375  ASN378  PHE381  TYR383  GLN384  PHE387  LEU408  LEU417 
 MET419  LEU428  TYR466  MET469  ASN472  ASP496  VAL498  LEU499  MET503  HIS524 
 TRP525 

> <Gold.Protein.RotatedAtoms>
   -2.9136  -29.8078  -30.8705 H   0  0  0  0  0  0  0  0  0  0  0  0  # atno 3525 bound_to 925 
  -11.9559  -23.8265  -31.3495 H   0  0  0  0  0  0  0  0  0  0  0  0  # atno 3677 bound_to 1070
   -9.8969  -36.4743  -34.0979 H   0  0  0  0  0  0  0  0  0  0  0  0  # atno 3781 bound_to 1176
  -15.6712  -27.2855  -37.6180 H   0  0  0  0  0  0  0  0  0  0  0  0  # atno 3847 bound_to 1247
  -13.2993  -24.2196  -40.4686 H   0  0  0  0  0  0  0  0  0  0  0  0  # atno 4507 bound_to 1931
   -2.2012  -32.1955  -36.8084 H   0  0  0  0  0  0  0  0  0  0  0  0  # atno 4531 bound_to 1957
   -9.4256  -36.7321  -32.5619 LP  0  0  0  0  0  0  0  0  0  0  0  0  # atno 5205 bound_to 1176
  -10.7891  -37.4295  -33.1286 LP  0  0  0  0  0  0  0  0  0  0  0  0  # atno 5206 bound_to 1176
  -14.3041  -28.1439  -37.8235 LP  0  0  0  0  0  0  0  0  0  0  0  0  # atno 5215 bound_to 1247
  -15.5857  -28.8133  -37.0645 LP  0  0  0  0  0  0  0  0  0  0  0  0  # atno 5216 bound_to 1247
  -12.4351  -24.1347  -39.0923 LP  0  0  0  0  0  0  0  0  0  0  0  0  # atno 5217 bound_to 1931
  -13.4587  -25.3824  -39.3414 LP  0  0  0  0  0  0  0  0  0  0  0  0  # atno 5218 bound_to 1931
  -11.1982  -22.4461  -30.9388 LP  0  0  0  0  0  0  0  0  0  0  0  0  # atno 5224 bound_to 1070
  -12.6999  -22.7551  -30.3765 LP  0  0  0  0  0  0  0  0  0  0  0  0  # atno 5225 bound_to 1070

$$$$
IA_13|SeH_inactivess_minimized|sdf|31|dock6
  -GOLD-   4172119143D 1   1.00000     0.00000

 64 67  0  0  0  0  0  0  0  0  1 V2000
  -15.6529  -23.4495  -38.4907 C   0  0  0  0  0  0  0  0  0  0  0  0
  -14.3679  -25.7405  -36.7904 C   0  0  0  0  0  0  0  0  0  0  0  0
   -7.8785  -29.2474  -34.7639 C   0  0  0  0  0  0  0  0  0  0  0  0
  -17.9462  -24.7367  -36.7808 C   0  0  0  0  0  0  0  0  0  0  0  0
  -17.6432  -24.9507  -38.2617 C   0  0  0  0  0  0  0  0  0  0  0  0
   -3.5160  -32.2251  -34.5034 C   0  0  0  0  0  0  0  0  0  0  0  0
   -5.6501  -33.4141  -33.9370 C   0  0  0  0  0  0  0  0  0  0  0  0
   -4.3607  -32.2291  -32.1420 C   0  0  0  0  0  0  0  0  0  0  0  0
   -5.7116  -31.3029  -35.2885 C   0  0  0  0  0  0  0  0  0  0  0  0
   -4.4208  -30.1167  -33.4916 C   0  0  0  0  0  0  0  0  0  0  0  0
   -6.5581  -31.3075  -32.9237 C   0  0  0  0  0  0  0  0  0  0  0  0
  -16.7827  -25.4244  -36.0831 C   0  0  0  0  0  0  0  0  0  0  0  0
  -16.1230  -24.8637  -38.3285 C   0  0  2  0  0  0  0  0  0  0  0  0
   -4.9196  -32.5928  -35.0130 C   0  0  0  0  0  0  0  0  0  0  0  0
   -3.6236  -31.4018  -33.2088 C   0  0  0  0  0  0  0  0  0  0  0  0
   -5.7690  -32.5971  -32.6391 C   0  0  0  0  0  0  0  0  0  0  0  0
   -5.8385  -30.4635  -33.9979 C   0  0  0  0  0  0  0  0  0  0  0  0
  -14.1120  -26.3455  -35.4330 C   0  0  0  0  0  0  0  0  0  0  0  0
  -12.7388  -27.0078  -35.3792 C   0  0  0  0  0  0  0  0  0  0  0  0
  -11.5946  -25.9886  -35.3796 C   0  0  0  0  0  0  0  0  0  0  0  0
  -10.3645  -26.5378  -34.6500 C   0  0  0  0  0  0  0  0  0  0  0  0
   -9.6742  -27.6540  -35.4275 C   0  0  0  0  0  0  0  0  0  0  0  0
  -15.6683  -25.3202  -37.0215 N   0  0  0  0  0  0  0  0  0  0  0  0
   -6.5814  -29.2504  -34.2608 N   0  0  0  0  0  0  0  0  0  0  0  0
   -8.3542  -27.9481  -34.9214 N   0  0  0  0  0  0  0  0  0  0  0  0
  -14.8504  -22.8885  -37.7596 O   0  0  0  0  0  0  0  0  0  0  0  0
  -13.4518  -25.6361  -37.6079 O   0  0  0  0  0  0  0  0  0  0  0  0
   -8.5237  -30.2594  -35.0348 O   0  0  0  0  0  0  0  0  0  0  0  0
  -16.2428  -22.8692  -39.5642 O   0  0  0  0  0  0  0  0  0  0  0  0
  -17.9435  -23.6650  -36.5493 H   0  0  0  0  0  0  0  0  0  0  0  0
  -18.9158  -25.1446  -36.4815 H   0  0  0  0  0  0  0  0  0  0  0  0
  -17.9705  -25.9554  -38.5560 H   0  0  0  0  0  0  0  0  0  0  0  0
  -18.1541  -24.2221  -38.8983 H   0  0  0  0  0  0  0  0  0  0  0  0
   -2.9338  -33.1366  -34.3205 H   0  0  0  0  0  0  0  0  0  0  0  0
   -2.9779  -31.6518  -35.2683 H   0  0  0  0  0  0  0  0  0  0  0  0
   -6.6480  -33.6967  -34.2942 H   0  0  0  0  0  0  0  0  0  0  0  0
   -5.1051  -34.3464  -33.7438 H   0  0  0  0  0  0  0  0  0  0  0  0
   -3.7935  -33.1405  -31.9167 H   0  0  0  0  0  0  0  0  0  0  0  0
   -4.4304  -31.6584  -31.2077 H   0  0  0  0  0  0  0  0  0  0  0  0
   -5.2119  -30.7207  -36.0738 H   0  0  0  0  0  0  0  0  0  0  0  0
   -6.7073  -31.5531  -35.6780 H   0  0  0  0  0  0  0  0  0  0  0  0
   -4.4816  -29.5079  -32.5800 H   0  0  0  0  0  0  0  0  0  0  0  0
   -3.8912  -29.5054  -34.2343 H   0  0  0  0  0  0  0  0  0  0  0  0
   -7.5743  -31.5579  -33.2551 H   0  0  0  0  0  0  0  0  0  0  0  0
   -6.6709  -30.7290  -31.9971 H   0  0  0  0  0  0  0  0  0  0  0  0
  -16.5314  -24.9600  -35.1256 H   0  0  0  0  0  0  0  0  0  0  0  0
  -16.9889  -26.4880  -35.9215 H   0  0  0  0  0  0  0  0  0  0  0  0
  -15.6918  -25.4727  -39.1288 H   0  0  0  0  0  0  0  0  0  0  0  0
   -4.8371  -33.1801  -35.9343 H   0  0  0  0  0  0  0  0  0  0  0  0
   -2.6210  -31.1439  -32.8498 H   0  0  0  0  0  0  0  0  0  0  0  0
   -6.2881  -33.1878  -31.8762 H   0  0  0  0  0  0  0  0  0  0  0  0
  -14.9079  -27.0618  -35.2075 H   0  0  0  0  0  0  0  0  0  0  0  0
  -14.1559  -25.5340  -34.6992 H   0  0  0  0  0  0  0  0  0  0  0  0
  -12.6644  -27.6430  -34.4879 H   0  0  0  0  0  0  0  0  0  0  0  0
  -12.6336  -27.6630  -36.2526 H   0  0  0  0  0  0  0  0  0  0  0  0
  -11.9201  -25.0616  -34.8931 H   0  0  0  0  0  0  0  0  0  0  0  0
  -11.3332  -25.7372  -36.4143 H   0  0  0  0  0  0  0  0  0  0  0  0
  -10.6577  -26.9028  -33.6579 H   0  0  0  0  0  0  0  0  0  0  0  0
   -9.6455  -25.7241  -34.4955 H   0  0  0  0  0  0  0  0  0  0  0  0
   -9.5559  -27.3633  -36.4760 H   0  0  0  0  0  0  0  0  0  0  0  0
  -10.2594  -28.5784  -35.3928 H   0  0  0  0  0  0  0  0  0  0  0  0
   -6.1355  -28.3597  -34.0693 H   0  0  0  0  0  0  0  0  0  0  0  0
   -7.7671  -27.1737  -34.6278 H   0  0  0  0  0  0  0  0  0  0  0  0
  -15.9475  -21.9419  -39.6878 H   0  0  0  0  0  0  0  0  0  0  0  0
  1 13  1  0  0  0  0
  1 26  2  0  0  0  0
  1 29  1  0  0  0  0
  2 18  1  0  0  0  0
  2 23  1  0  0  0  0
  2 27  2  0  0  0  0
  3 24  1  0  0  0  0
  3 25  1  0  0  0  0
  3 28  2  0  0  0  0
  4  5  1  0  0  0  0
  4 12  1  0  0  0  0
  5 13  1  0  0  0  0
  6 14  1  0  0  0  0
  6 15  1  0  0  0  0
  7 14  1  0  0  0  0
  7 16  1  0  0  0  0
  8 15  1  0  0  0  0
  8 16  1  0  0  0  0
  9 14  1  0  0  0  0
  9 17  1  0  0  0  0
 10 15  1  0  0  0  0
 10 17  1  0  0  0  0
 11 16  1  0  0  0  0
 11 17  1  0  0  0  0
 12 23  1  0  0  0  0
 13 23  1  0  0  0  0
 17 24  1  0  0  0  0
 18 19  1  0  0  0  0
 19 20  1  0  0  0  0
 20 21  1  0  0  0  0
 21 22  1  0  0  0  0
 22 25  1  0  0  0  0
  4 30  1  0  0  0  0
  4 31  1  0  0  0  0
  5 32  1  0  0  0  0
  5 33  1  0  0  0  0
  6 34  1  0  0  0  0
  6 35  1  0  0  0  0
  7 36  1  0  0  0  0
  7 37  1  0  0  0  0
  8 38  1  0  0  0  0
  8 39  1  0  0  0  0
  9 40  1  0  0  0  0
  9 41  1  0  0  0  0
 10 42  1  0  0  0  0
 10 43  1  0  0  0  0
 11 44  1  0  0  0  0
 11 45  1  0  0  0  0
 12 46  1  0  0  0  0
 12 47  1  0  0  0  0
 13 48  1  0  0  0  0
 14 49  1  0  0  0  0
 15 50  1  0  0  0  0
 16 51  1  0  0  0  0
 18 52  1  0  0  0  0
 18 53  1  0  0  0  0
 19 54  1  0  0  0  0
 19 55  1  0  0  0  0
 20 56  1  0  0  0  0
 20 57  1  0  0  0  0
 21 58  1  0  0  0  0
 21 59  1  0  0  0  0
 22 60  1  0  0  0  0
 22 61  1  0  0  0  0
 24 62  1  0  0  0  0
 25 63  1  0  0  0  0
 29 64  1  0  0  0  0
M  END
> <Name>
IA_13

> <SourceTag>
IA_13

> <Gold.Version>
5.2

> <Gold.Id.Protein>
6HGV|6HGV_protein|mol2

> <Gold.Goldscore.Fitness>
75.6442

> <Gold.Goldscore.Internal.Vdw>
-5.4102

> <Gold.Goldscore.Internal.Torsion>
-4.7838

> <Gold.Goldscore.External.Vdw>
56.4283

> <Gold.Goldscore.Internal.HBond>
0.0000

> <Gold.Goldscore.External.HBond>
2.3725

> <Gold.Goldscore.Internal.Correction>
-5.8769

> <Gold.Goldscore.Hbonds>
donor molecule, donor type, donor heavy atom, donor atom, acceptor molecule, acceptor atom, score
      P1  H  1931  4507       L1    27  1.00
      L1  H    29    64       P1   302  0.19

> <Gold.Goldscore.Internal.Vdw.Weighted>
-5.4102

> <Gold.Goldscore.Internal.Torsion.Weighted>
-4.7838

> <Gold.Goldscore.External.Vdw.Weighted>
77.5889

> <Gold.Goldscore.Internal.HBond.Weighted>
0.0000

> <Gold.Goldscore.External.HBond.Weighted>
2.3725

> <Gold.Goldscore.Internal.Correction.Weighted>
-5.8769

> <Gold.Protein.RotatedTorsions>
[ 3781 1176 1175 1172 ] final   68.38 input   60.00 | X-H torsion
[ 3847 1247 1246 1244 ] final  -16.64 input   60.00 | X-H torsion
[ 4507 1931 1930 1928 ] final   20.04 input   60.00 | X-H torsion
[ 3677 1070 1069 1066 ] final  -89.32 input   60.00 | X-H torsion
[ 3525  925  924  922 ] final  -29.94 input   59.99 | X-H torsion
[ 4531 1957 1955 1953 ] final  120.97 input   60.00 | X-H torsion

> <Gold.Protein.ActiveResidues>
 PHE267  PRO268  MET310  ASP335  TRP336  MET339  TYR343  THR360  PRO361  ILE363 
 PRO371  SER374  ILE375  ASN378  PHE381  TYR383  GLN384  PHE387  LEU408  LEU417 
 MET419  LEU428  TYR466  MET469  ASN472  ASP496  VAL498  LEU499  MET503  HIS524 
 TRP525 

> <Gold.Protein.RotatedAtoms>
   -3.7655  -29.5139  -30.0233 H   0  0  0  0  0  0  0  0  0  0  0  0  # atno 3525 bound_to 925 
  -11.8932  -23.8115  -31.3717 H   0  0  0  0  0  0  0  0  0  0  0  0  # atno 3677 bound_to 1070
  -10.5175  -37.4218  -32.6736 H   0  0  0  0  0  0  0  0  0  0  0  0  # atno 3781 bound_to 1176
  -15.8897  -28.5152  -37.0619 H   0  0  0  0  0  0  0  0  0  0  0  0  # atno 3847 bound_to 1247
  -13.0388  -25.1573  -38.9011 H   0  0  0  0  0  0  0  0  0  0  0  0  # atno 4507 bound_to 1931
   -2.3634  -34.0491  -36.8096 H   0  0  0  0  0  0  0  0  0  0  0  0  # atno 4531 bound_to 1957
  -10.3455  -36.7522  -34.1468 LP  0  0  0  0  0  0  0  0  0  0  0  0  # atno 5205 bound_to 1176
   -9.2443  -36.4552  -32.9781 LP  0  0  0  0  0  0  0  0  0  0  0  0  # atno 5206 bound_to 1176
  -15.2973  -27.1906  -37.7984 LP  0  0  0  0  0  0  0  0  0  0  0  0  # atno 5215 bound_to 1247
  -14.3724  -28.5282  -37.6497 LP  0  0  0  0  0  0  0  0  0  0  0  0  # atno 5216 bound_to 1247
  -13.6291  -24.7689  -40.3669 LP  0  0  0  0  0  0  0  0  0  0  0  0  # atno 5217 bound_to 1931
  -12.5270  -23.8038  -39.6454 LP  0  0  0  0  0  0  0  0  0  0  0  0  # atno 5218 bound_to 1931
  -11.2315  -22.4024  -30.8976 LP  0  0  0  0  0  0  0  0  0  0  0  0  # atno 5224 bound_to 1070
  -12.7298  -22.8140  -30.3953 LP  0  0  0  0  0  0  0  0  0  0  0  0  # atno 5225 bound_to 1070

$$$$
IA_54.cdx|SeH_inactivess_minimized|sdf|139|dock3
  -GOLD-   4172121523D 1   1.00000     0.00000

 31 32  0  0  0  0  0  0  0  0  1 V2000
   -9.7054  -26.7637  -35.3256 C   0  0  0  0  0  0  0  0  0  0  0  0
  -19.5503  -25.0800  -37.1101 C   0  0  0  0  0  0  0  0  0  0  0  0
  -10.5831  -27.4215  -36.1875 C   0  0  0  0  0  0  0  0  0  0  0  0
   -9.9721  -25.4547  -34.9242 C   0  0  0  0  0  0  0  0  0  0  0  0
  -18.9666  -24.8410  -38.3542 C   0  0  0  0  0  0  0  0  0  0  0  0
  -18.7607  -25.0941  -35.9602 C   0  0  0  0  0  0  0  0  0  0  0  0
  -11.7273  -26.7702  -36.6480 C   0  0  0  0  0  0  0  0  0  0  0  0
  -11.1164  -24.8034  -35.3849 C   0  0  0  0  0  0  0  0  0  0  0  0
  -17.5932  -24.6162  -38.4485 C   0  0  0  0  0  0  0  0  0  0  0  0
  -17.3873  -24.8693  -36.0547 C   0  0  0  0  0  0  0  0  0  0  0  0
  -11.9940  -25.4611  -36.2468 C   0  0  0  0  0  0  0  0  0  0  0  0
  -16.8035  -24.6304  -37.2987 C   0  0  0  0  0  0  0  0  0  0  0  0
  -14.4287  -25.3488  -36.9145 C   0  0  0  0  0  0  0  0  0  0  0  0
  -14.9317  -23.1790  -38.0941 C   0  0  0  0  0  0  0  0  0  0  0  0
  -13.1386  -24.8100  -36.7075 N   0  0  0  0  0  0  0  0  0  0  0  0
  -15.3753  -24.3964  -37.3971 N   0  0  0  0  0  0  0  0  0  0  0  0
  -14.7106  -26.5268  -36.6898 O   0  0  0  0  0  0  0  0  0  0  0  0
   -8.8148  -27.2708  -34.9661 H   0  0  0  0  0  0  0  0  0  0  0  0
  -20.6199  -25.2543  -37.0361 H   0  0  0  0  0  0  0  0  0  0  0  0
  -10.3762  -28.4409  -36.4994 H   0  0  0  0  0  0  0  0  0  0  0  0
   -9.2890  -24.9430  -34.2523 H   0  0  0  0  0  0  0  0  0  0  0  0
  -19.5813  -24.8291  -39.2494 H   0  0  0  0  0  0  0  0  0  0  0  0
  -19.2157  -25.2792  -34.9916 H   0  0  0  0  0  0  0  0  0  0  0  0
  -12.4041  -27.2929  -37.3193 H   0  0  0  0  0  0  0  0  0  0  0  0
  -11.3140  -23.7832  -35.0653 H   0  0  0  0  0  0  0  0  0  0  0  0
  -17.1494  -24.4309  -39.4235 H   0  0  0  0  0  0  0  0  0  0  0  0
  -16.7818  -24.8826  -35.1517 H   0  0  0  0  0  0  0  0  0  0  0  0
  -14.0864  -23.4075  -38.7483 H   0  0  0  0  0  0  0  0  0  0  0  0
  -14.6214  -22.4208  -37.3700 H   0  0  0  0  0  0  0  0  0  0  0  0
  -15.7460  -22.7725  -38.6999 H   0  0  0  0  0  0  0  0  0  0  0  0
  -13.0301  -23.8138  -36.9235 H   0  0  0  0  0  0  0  0  0  0  0  0
  1  3  2  0  0  0  0
  1  4  1  0  0  0  0
  2  5  2  0  0  0  0
  2  6  1  0  0  0  0
  3  7  1  0  0  0  0
  4  8  2  0  0  0  0
  5  9  1  0  0  0  0
  6 10  2  0  0  0  0
  7 11  2  0  0  0  0
  8 11  1  0  0  0  0
  9 12  2  0  0  0  0
 10 12  1  0  0  0  0
 11 15  1  0  0  0  0
 12 16  1  0  0  0  0
 13 15  1  0  0  0  0
 13 16  1  0  0  0  0
 13 17  2  0  0  0  0
 14 16  1  0  0  0  0
  1 18  1  0  0  0  0
  2 19  1  0  0  0  0
  3 20  1  0  0  0  0
  4 21  1  0  0  0  0
  5 22  1  0  0  0  0
  6 23  1  0  0  0  0
  7 24  1  0  0  0  0
  8 25  1  0  0  0  0
  9 26  1  0  0  0  0
 10 27  1  0  0  0  0
 14 28  1  0  0  0  0
 14 29  1  0  0  0  0
 14 30  1  0  0  0  0
 15 31  1  0  0  0  0
M  END
> <Name>
IA_54.cdx

> <SourceTag>
IA_54

> <Gold.Version>
5.2

> <Gold.Id.Protein>
6HGV|6HGV_protein|mol2

> <Gold.Goldscore.Fitness>
46.8729

> <Gold.Goldscore.Internal.Vdw>
-5.0371

> <Gold.Goldscore.Internal.Torsion>
-10.5309

> <Gold.Goldscore.External.Vdw>
36.5586

> <Gold.Goldscore.Internal.HBond>
0.0000

> <Gold.Goldscore.External.HBond>
1.2810

> <Gold.Goldscore.Internal.Correction>
-10.8920

> <Gold.Goldscore.Hbonds>
donor molecule, donor type, donor heavy atom, donor atom, acceptor molecule, acceptor atom, score
      L1  H    15    31       P1   854  0.21

> <Gold.Goldscore.Internal.Vdw.Weighted>
-5.0371

> <Gold.Goldscore.Internal.Torsion.Weighted>
-10.5309

> <Gold.Goldscore.External.Vdw.Weighted>
50.2681

> <Gold.Goldscore.Internal.HBond.Weighted>
0.0000

> <Gold.Goldscore.External.HBond.Weighted>
1.2810

> <Gold.Goldscore.Internal.Correction.Weighted>
-10.8920

> <Gold.Protein.RotatedTorsions>
[ 3781 1176 1175 1172 ] final   12.13 input   60.00 | X-H torsion
[ 3847 1247 1246 1244 ] final    5.23 input   60.00 | X-H torsion
[ 4507 1931 1930 1928 ] final  -66.49 input   60.00 | X-H torsion
[ 3677 1070 1069 1066 ] final -116.71 input   60.00 | X-H torsion
[ 3525  925  924  922 ] final   98.58 input   59.99 | X-H torsion
[ 4531 1957 1955 1953 ] final   31.84 input   60.00 | X-H torsion

> <Gold.Protein.ActiveResidues>
 PHE267  PRO268  MET310  ASP335  TRP336  MET339  TYR343  THR360  PRO361  ILE363 
 PRO371  SER374  ILE375  ASN378  PHE381  TYR383  GLN384  PHE387  LEU408  LEU417 
 MET419  LEU428  TYR466  MET469  ASN472  ASP496  VAL498  LEU499  MET503  HIS524 
 TRP525 

> <Gold.Protein.RotatedAtoms>
   -2.2976  -30.1000  -30.6119 H   0  0  0  0  0  0  0  0  0  0  0  0  # atno 3525 bound_to 925 
  -11.5045  -23.6133  -31.4500 H   0  0  0  0  0  0  0  0  0  0  0  0  # atno 3677 bound_to 1070
  -10.8285  -37.3221  -33.4936 H   0  0  0  0  0  0  0  0  0  0  0  0  # atno 3781 bound_to 1176
  -15.6417  -28.7696  -37.0619 H   0  0  0  0  0  0  0  0  0  0  0  0  # atno 3847 bound_to 1247
  -13.6930  -25.1661  -40.0051 H   0  0  0  0  0  0  0  0  0  0  0  0  # atno 4507 bound_to 1931
   -3.0829  -32.9606  -36.6540 H   0  0  0  0  0  0  0  0  0  0  0  0  # atno 4531 bound_to 1957
   -9.5952  -36.3428  -33.9032 LP  0  0  0  0  0  0  0  0  0  0  0  0  # atno 5205 bound_to 1176
   -9.6815  -36.9650  -32.3959 LP  0  0  0  0  0  0  0  0  0  0  0  0  # atno 5206 bound_to 1176
  -15.6167  -27.2523  -37.6494 LP  0  0  0  0  0  0  0  0  0  0  0  0  # atno 5215 bound_to 1247
  -14.3028  -28.2104  -37.7986 LP  0  0  0  0  0  0  0  0  0  0  0  0  # atno 5216 bound_to 1247
  -12.8037  -23.8075  -40.1125 LP  0  0  0  0  0  0  0  0  0  0  0  0  # atno 5217 bound_to 1931
  -12.6936  -24.7563  -38.7880 LP  0  0  0  0  0  0  0  0  0  0  0  0  # atno 5218 bound_to 1931
  -11.5342  -22.2045  -30.6360 LP  0  0  0  0  0  0  0  0  0  0  0  0  # atno 5224 bound_to 1070
  -12.8185  -23.2115  -30.5781 LP  0  0  0  0  0  0  0  0  0  0  0  0  # atno 5225 bound_to 1070

$$$$
IA_132.cdx|SeH_inactivess_minimized|sdf|34|dock5
  -GOLD-   4172119213D 1   1.00000     0.00000

 38 39  0  0  0  0  0  0  0  0  3 V2000
  -16.0576  -23.4244  -38.5741 C   0  0  0  0  0  0  0  0  0  0  0  0
  -16.5544  -25.3297  -37.1740 C   0  0  0  0  0  0  0  0  0  0  0  0
  -17.3844  -23.3934  -39.0029 C   0  0  0  0  0  0  0  0  0  0  0  0
  -17.8814  -25.2987  -37.6028 C   0  0  0  0  0  0  0  0  0  0  0  0
  -10.9803  -27.2090  -36.6193 C   0  0  0  0  0  0  0  0  0  0  0  0
  -10.2494  -25.4443  -35.1398 C   0  0  0  0  0  0  0  0  0  0  0  0
   -9.9078  -27.9995  -36.2062 C   0  0  0  0  0  0  0  0  0  0  0  0
   -9.1770  -26.2348  -34.7267 C   0  0  0  0  0  0  0  0  0  0  0  0
  -15.6424  -24.3926  -37.6597 C   0  0  0  0  0  0  0  0  0  0  0  0
  -11.1510  -25.9313  -36.0862 C   0  0  0  0  0  0  0  0  0  0  0  0
  -18.2964  -24.3305  -38.5172 C   0  0  0  0  0  0  0  0  0  0  0  0
   -9.0063  -27.5124  -35.2598 C   0  0  0  0  0  0  0  0  0  0  0  0
  -13.5261  -25.5466  -36.8800 C   0  0  0  0  0  0  0  0  0  0  0  0
  -19.9555  -24.0167  -40.3364 C   0  0  0  0  0  0  0  0  0  0  0  0
  -20.7169  -24.5603  -38.0184 C   0  0  0  0  0  0  0  0  0  0  0  0
  -14.3148  -24.4242  -37.2322 N   0  0  0  0  0  0  0  0  0  0  0  0
  -12.2387  -25.1295  -36.5053 N   0  0  0  0  0  0  0  0  0  0  0  0
  -19.6383  -24.2984  -38.9505 N   0  0  0  0  0  0  0  0  0  0  0  0
   -7.9146  -28.3173  -34.8392 N   0  3  0  0  0  0  0  0  0  0  0  0
   -7.9234  -29.5427  -35.1085 O   0  5  0  0  0  0  0  0  0  0  0  0
  -13.9168  -26.7094  -36.9016 O   0  0  0  0  0  0  0  0  0  0  0  0
   -6.9709  -27.7808  -34.2099 O   0  0  0  0  0  0  0  0  0  0  0  0
  -15.3553  -22.6893  -38.9595 H   0  0  0  0  0  0  0  0  0  0  0  0
  -16.2417  -26.0883  -36.4610 H   0  0  0  0  0  0  0  0  0  0  0  0
  -17.6974  -22.6350  -39.7160 H   0  0  0  0  0  0  0  0  0  0  0  0
  -18.5836  -26.0337  -37.2187 H   0  0  0  0  0  0  0  0  0  0  0  0
  -11.6767  -27.5987  -37.3573 H   0  0  0  0  0  0  0  0  0  0  0  0
  -10.3726  -24.4501  -34.7176 H   0  0  0  0  0  0  0  0  0  0  0  0
   -9.7864  -28.9934  -36.6298 H   0  0  0  0  0  0  0  0  0  0  0  0
   -8.4817  -25.8430  -33.9883 H   0  0  0  0  0  0  0  0  0  0  0  0
  -19.0890  -24.2239  -40.9697 H   0  0  0  0  0  0  0  0  0  0  0  0
  -20.2344  -22.9661  -40.4543 H   0  0  0  0  0  0  0  0  0  0  0  0
  -20.7905  -24.6402  -40.6672 H   0  0  0  0  0  0  0  0  0  0  0  0
  -20.9766  -25.6219  -38.0329 H   0  0  0  0  0  0  0  0  0  0  0  0
  -21.6013  -23.9779  -38.2904 H   0  0  0  0  0  0  0  0  0  0  0  0
  -20.4149  -24.2858  -37.0041 H   0  0  0  0  0  0  0  0  0  0  0  0
  -13.8479  -23.5137  -37.1639 H   0  0  0  0  0  0  0  0  0  0  0  0
  -12.0597  -24.1289  -36.5364 H   0  0  0  0  0  0  0  0  0  0  0  0
  1  3  1  0  0  0  0
  1  9  2  0  0  0  0
  2  4  2  0  0  0  0
  2  9  1  0  0  0  0
  3 11  2  0  0  0  0
  4 11  1  0  0  0  0
  5  7  1  0  0  0  0
  5 10  2  0  0  0  0
  6  8  2  0  0  0  0
  6 10  1  0  0  0  0
  7 12  2  0  0  0  0
  8 12  1  0  0  0  0
  9 16  1  0  0  0  0
 10 17  1  0  0  0  0
 11 18  1  0  0  0  0
 12 19  1  0  0  0  0
 13 16  1  0  0  0  0
 13 17  1  0  0  0  0
 13 21  2  0  0  0  0
 14 18  1  0  0  0  0
 15 18  1  0  0  0  0
 19 20  1  0  0  0  0
 19 22  2  0  0  0  0
  1 23  1  0  0  0  0
  2 24  1  0  0  0  0
  3 25  1  0  0  0  0
  4 26  1  0  0  0  0
  5 27  1  0  0  0  0
  6 28  1  0  0  0  0
  7 29  1  0  0  0  0
  8 30  1  0  0  0  0
 14 31  1  0  0  0  0
 14 32  1  0  0  0  0
 14 33  1  0  0  0  0
 15 34  1  0  0  0  0
 15 35  1  0  0  0  0
 15 36  1  0  0  0  0
 16 37  1  0  0  0  0
 17 38  1  0  0  0  0
M  CHG  1  19   1
M  CHG  1  20  -1
M  END
> <Name>
IA_132.cdx

> <SourceTag>
IA_132

> <Gold.Version>
5.2

> <Gold.Id.Protein>
6HGV|6HGV_protein|mol2

> <Gold.Goldscore.Fitness>
63.4641

> <Gold.Goldscore.Internal.Vdw>
-1.5382

> <Gold.Goldscore.Internal.Torsion>
-9.2408

> <Gold.Goldscore.External.Vdw>
43.4309

> <Gold.Goldscore.Internal.HBond>
0.0000

> <Gold.Goldscore.External.HBond>
3.9054

> <Gold.Goldscore.Internal.Correction>
-10.6204

> <Gold.Goldscore.Hbonds>
donor molecule, donor type, donor heavy atom, donor atom, acceptor molecule, acceptor atom, score
      P1  H  1247  3847       L1    21  0.03
      L1  H    16    37       P1   854  0.42
      L1  H    17    38       P1   854  0.22

> <Gold.Goldscore.Internal.Vdw.Weighted>
-1.5382

> <Gold.Goldscore.Internal.Torsion.Weighted>
-9.2408

> <Gold.Goldscore.External.Vdw.Weighted>
59.7174

> <Gold.Goldscore.Internal.HBond.Weighted>
0.0000

> <Gold.Goldscore.External.HBond.Weighted>
3.9054

> <Gold.Goldscore.Internal.Correction.Weighted>
-10.6204

> <Gold.Protein.RotatedTorsions>
[ 3781 1176 1175 1172 ] final   36.54 input   60.00 | X-H torsion
[ 3847 1247 1246 1244 ] final  157.11 input   60.00 | X-H torsion
[ 4507 1931 1930 1928 ] final  -34.45 input   60.00 | X-H torsion
[ 3677 1070 1069 1066 ] final -124.05 input   60.00 | X-H torsion
[ 3525  925  924  922 ] final  114.56 input   59.99 | X-H torsion
[ 4531 1957 1955 1953 ] final -149.88 input   60.00 | X-H torsion

> <Gold.Protein.ActiveResidues>
 PHE267  PRO268  MET310  ASP335  TRP336  MET339  TYR343  THR360  PRO361  ILE363 
 PRO371  SER374  ILE375  ASN378  PHE381  TYR383  GLN384  PHE387  LEU408  LEU417 
 MET419  LEU428  TYR466  MET469  ASN472  ASP496  VAL498  LEU499  MET503  HIS524 
 TRP525 

> <Gold.Protein.RotatedAtoms>
   -2.1567  -30.1800  -30.4083 H   0  0  0  0  0  0  0  0  0  0  0  0  # atno 3525 bound_to 925 
  -11.4141  -23.5346  -31.4496 H   0  0  0  0  0  0  0  0  0  0  0  0  # atno 3677 bound_to 1070
  -10.7781  -37.4299  -33.1161 H   0  0  0  0  0  0  0  0  0  0  0  0  # atno 3781 bound_to 1176
  -14.4341  -27.7300  -37.9336 H   0  0  0  0  0  0  0  0  0  0  0  0  # atno 3847 bound_to 1247
  -13.5636  -25.3652  -39.5462 H   0  0  0  0  0  0  0  0  0  0  0  0  # atno 4507 bound_to 1931
   -1.2808  -33.3295  -37.0030 H   0  0  0  0  0  0  0  0  0  0  0  0  # atno 4531 bound_to 1957
   -9.9099  -36.4760  -34.1082 LP  0  0  0  0  0  0  0  0  0  0  0  0  # atno 5205 bound_to 1176
   -9.4174  -36.7232  -32.5710 LP  0  0  0  0  0  0  0  0  0  0  0  0  # atno 5206 bound_to 1176
  -15.1747  -28.9610  -37.1693 LP  0  0  0  0  0  0  0  0  0  0  0  0  # atno 5215 bound_to 1247
  -15.9610  -27.5487  -37.4009 LP  0  0  0  0  0  0  0  0  0  0  0  0  # atno 5216 bound_to 1247
  -13.1516  -24.0512  -40.4132 LP  0  0  0  0  0  0  0  0  0  0  0  0  # atno 5217 bound_to 1931
  -12.4760  -24.3121  -38.9495 LP  0  0  0  0  0  0  0  0  0  0  0  0  # atno 5218 bound_to 1931
  -11.6347  -22.1812  -30.5733 LP  0  0  0  0  0  0  0  0  0  0  0  0  # atno 5224 bound_to 1070
  -12.8090  -23.3140  -30.6411 LP  0  0  0  0  0  0  0  0  0  0  0  0  # atno 5225 bound_to 1070

$$$$
IA_199.cdx|SeH_inactivess_minimized|sdf|97|dock7
  -GOLD-   4172120353D 1   1.00000     0.00000

 31 31  0  0  0  0  0  0  0  0  3 V2000
  -10.0965  -25.4838  -34.7539 C   0  0  0  0  0  0  0  0  0  0  0  0
  -10.5320  -27.4049  -36.1527 C   0  0  0  0  0  0  0  0  0  0  0  0
  -11.2921  -24.9039  -35.1780 C   0  0  0  0  0  0  0  0  0  0  0  0
  -11.7277  -26.8251  -36.5768 C   0  0  0  0  0  0  0  0  0  0  0  0
   -9.7164  -26.7343  -35.2413 C   0  0  0  0  0  0  0  0  0  0  0  0
  -12.1076  -25.5745  -36.0894 C   0  0  0  0  0  0  0  0  0  0  0  0
  -17.8931  -24.6916  -36.6552 C   0  0  0  0  0  0  0  0  0  0  0  0
  -18.0404  -24.1602  -37.8836 C   0  0  0  0  0  0  0  0  0  0  0  0
  -14.4285  -25.6540  -36.0356 C   0  0  0  0  0  0  0  0  0  0  0  0
  -19.2297  -23.2910  -38.1980 C   0  0  0  0  0  0  0  0  0  0  0  0
  -17.0957  -24.3522  -39.0360 C   0  0  0  0  0  0  0  0  0  0  0  0
  -16.7885  -25.5676  -36.1534 C   0  0  0  0  0  0  0  0  0  0  0  0
   -8.4992  -27.3247  -34.8100 N   0  3  0  0  0  0  0  0  0  0  0  0
   -7.6756  -26.6240  -34.1734 O   0  5  0  0  0  0  0  0  0  0  0  0
  -14.4391  -26.6673  -35.3481 O   0  0  0  0  0  0  0  0  0  0  0  0
   -8.2807  -28.5311  -35.0768 O   0  0  0  0  0  0  0  0  0  0  0  0
  -13.3054  -24.9936  -36.5142 O   0  0  0  0  0  0  0  0  0  0  0  0
  -15.5336  -24.9741  -36.4657 O   0  0  0  0  0  0  0  0  0  0  0  0
   -9.4701  -24.9505  -34.0429 H   0  0  0  0  0  0  0  0  0  0  0  0
  -10.2477  -28.3798  -36.5411 H   0  0  0  0  0  0  0  0  0  0  0  0
  -11.5829  -23.9297  -34.7945 H   0  0  0  0  0  0  0  0  0  0  0  0
  -12.3586  -27.3521  -37.2872 H   0  0  0  0  0  0  0  0  0  0  0  0
  -18.6548  -24.4676  -35.9089 H   0  0  0  0  0  0  0  0  0  0  0  0
  -19.9386  -23.8336  -38.8319 H   0  0  0  0  0  0  0  0  0  0  0  0
  -19.7408  -22.9998  -37.2746 H   0  0  0  0  0  0  0  0  0  0  0  0
  -18.9494  -22.3731  -38.7255 H   0  0  0  0  0  0  0  0  0  0  0  0
  -16.5636  -23.4179  -39.2444 H   0  0  0  0  0  0  0  0  0  0  0  0
  -16.3423  -25.1228  -38.8634 H   0  0  0  0  0  0  0  0  0  0  0  0
  -17.6534  -24.6376  -39.9343 H   0  0  0  0  0  0  0  0  0  0  0  0
  -16.8353  -26.5366  -36.6605 H   0  0  0  0  0  0  0  0  0  0  0  0
  -16.8164  -25.7557  -35.0790 H   0  0  0  0  0  0  0  0  0  0  0  0
  1  3  1  0  0  0  0
  1  5  2  0  0  0  0
  2  4  2  0  0  0  0
  2  5  1  0  0  0  0
  3  6  2  0  0  0  0
  4  6  1  0  0  0  0
  5 13  1  0  0  0  0
  6 17  1  0  0  0  0
  7  8  2  0  0  0  0
  7 12  1  0  0  0  0
  8 10  1  0  0  0  0
  8 11  1  0  0  0  0
  9 15  2  0  0  0  0
  9 17  1  0  0  0  0
  9 18  1  0  0  0  0
 12 18  1  0  0  0  0
 13 14  1  0  0  0  0
 13 16  2  0  0  0  0
  1 19  1  0  0  0  0
  2 20  1  0  0  0  0
  3 21  1  0  0  0  0
  4 22  1  0  0  0  0
  7 23  1  0  0  0  0
 10 24  1  0  0  0  0
 10 25  1  0  0  0  0
 10 26  1  0  0  0  0
 11 27  1  0  0  0  0
 11 28  1  0  0  0  0
 11 29  1  0  0  0  0
 12 30  1  0  0  0  0
 12 31  1  0  0  0  0
M  CHG  1  13   1
M  CHG  1  14  -1
M  END
> <Name>
IA_199.cdx

> <SourceTag>
IA_199

> <Gold.Version>
5.2

> <Gold.Id.Protein>
6HGV|6HGV_protein|mol2

> <Gold.Goldscore.Fitness>
52.6837

> <Gold.Goldscore.Internal.Vdw>
-1.1947

> <Gold.Goldscore.Internal.Torsion>
-4.2567

> <Gold.Goldscore.External.Vdw>
37.7766

> <Gold.Goldscore.Internal.HBond>
0.0000

> <Gold.Goldscore.External.HBond>
1.5051

> <Gold.Goldscore.Internal.Correction>
-4.6872

> <Gold.Goldscore.Hbonds>
donor molecule, donor type, donor heavy atom, donor atom, acceptor molecule, acceptor atom, score
      P1  H  1931  4507       L1    17  0.75

> <Gold.Goldscore.Internal.Vdw.Weighted>
-1.1947

> <Gold.Goldscore.Internal.Torsion.Weighted>
-4.2567

> <Gold.Goldscore.External.Vdw.Weighted>
51.9428

> <Gold.Goldscore.Internal.HBond.Weighted>
0.0000

> <Gold.Goldscore.External.HBond.Weighted>
1.5051

> <Gold.Goldscore.Internal.Correction.Weighted>
-4.6872

> <Gold.Protein.RotatedTorsions>
[ 3781 1176 1175 1172 ] final  100.79 input   60.00 | X-H torsion
[ 3847 1247 1246 1244 ] final   83.23 input   60.00 | X-H torsion
[ 4507 1931 1930 1928 ] final   37.95 input   60.00 | X-H torsion
[ 3677 1070 1069 1066 ] final -117.43 input   60.00 | X-H torsion
[ 3525  925  924  922 ] final  -10.13 input   59.99 | X-H torsion
[ 4531 1957 1955 1953 ] final  178.60 input   60.00 | X-H torsion

> <Gold.Protein.ActiveResidues>
 PHE267  PRO268  MET310  ASP335  TRP336  MET339  TYR343  THR360  PRO361  ILE363 
 PRO371  SER374  ILE375  ASN378  PHE381  TYR383  GLN384  PHE387  LEU408  LEU417 
 MET419  LEU428  TYR466  MET469  ASN472  ASP496  VAL498  LEU499  MET503  HIS524 
 TRP525 

> <Gold.Protein.RotatedAtoms>
   -3.6780  -29.5237  -30.3332 H   0  0  0  0  0  0  0  0  0  0  0  0  # atno 3525 bound_to 925 
  -11.4953  -23.6060  -31.4503 H   0  0  0  0  0  0  0  0  0  0  0  0  # atno 3677 bound_to 1070
  -10.1041  -37.2459  -32.4067 H   0  0  0  0  0  0  0  0  0  0  0  0  # atno 3781 bound_to 1176
  -14.5460  -28.7603  -37.4955 H   0  0  0  0  0  0  0  0  0  0  0  0  # atno 3847 bound_to 1247
  -12.8457  -24.9591  -38.8095 H   0  0  0  0  0  0  0  0  0  0  0  0  # atno 4507 bound_to 1931
   -1.5167  -33.7787  -36.9659 H   0  0  0  0  0  0  0  0  0  0  0  0  # atno 4531 bound_to 1957
  -10.6930  -37.0714  -33.9136 LP  0  0  0  0  0  0  0  0  0  0  0  0  # atno 5205 bound_to 1176
   -9.3132  -36.3132  -33.4801 LP  0  0  0  0  0  0  0  0  0  0  0  0  # atno 5206 bound_to 1176
  -16.0345  -28.2250  -37.1133 LP  0  0  0  0  0  0  0  0  0  0  0  0  # atno 5215 bound_to 1247
  -14.9884  -27.2470  -37.8981 LP  0  0  0  0  0  0  0  0  0  0  0  0  # atno 5216 bound_to 1247
  -13.6930  -25.0005  -40.1982 LP  0  0  0  0  0  0  0  0  0  0  0  0  # atno 5217 bound_to 1931
  -12.6576  -23.7718  -39.9063 LP  0  0  0  0  0  0  0  0  0  0  0  0  # atno 5218 bound_to 1931
  -11.5438  -22.2016  -30.6297 LP  0  0  0  0  0  0  0  0  0  0  0  0  # atno 5224 bound_to 1070
  -12.8182  -23.2217  -30.5841 LP  0  0  0  0  0  0  0  0  0  0  0  0  # atno 5225 bound_to 1070

$$$$
IA_108.cdx|SeH_inactivess_minimized|sdf|10|dock1
  -GOLD-   4172118443D 1   1.00000     0.00000

 29 29  0  0  0  0  0  0  0  0  1 V2000
  -18.3982  -25.2700  -36.3649 C   0  0  0  0  0  0  0  0  0  0  0  0
  -17.4446  -25.2155  -37.0923 C   0  0  0  0  0  0  0  0  0  0  0  0
  -13.9070  -25.6058  -37.3627 C   0  0  0  0  0  0  0  0  0  0  0  0
  -11.1791  -26.5637  -33.6311 C   0  0  0  0  0  0  0  0  0  0  0  0
  -11.1059  -25.0911  -34.0261 C   0  0  0  0  0  0  0  0  0  0  0  0
  -12.0710  -27.3636  -34.5769 C   0  0  0  0  0  0  0  0  0  0  0  0
  -10.6826  -24.9204  -35.4856 C   0  0  0  0  0  0  0  0  0  0  0  0
  -11.6451  -27.1877  -36.0351 C   0  0  0  0  0  0  0  0  0  0  0  0
  -11.5643  -25.7149  -36.4583 C   0  0  0  0  0  0  0  0  0  0  0  0
  -16.2777  -25.1501  -37.9757 C   0  0  0  0  0  0  0  0  0  0  0  0
  -12.9059  -25.1306  -36.5191 N   0  0  0  0  0  0  0  0  0  0  0  0
  -15.0804  -24.8697  -37.2189 N   0  0  0  0  0  0  0  0  0  0  0  0
  -13.7737  -26.5538  -38.1355 O   0  0  0  0  0  0  0  0  0  0  0  0
  -19.2443  -25.3188  -35.7200 H   0  0  0  0  0  0  0  0  0  0  0  0
  -10.1702  -26.9939  -33.6238 H   0  0  0  0  0  0  0  0  0  0  0  0
  -11.5672  -26.6471  -32.6072 H   0  0  0  0  0  0  0  0  0  0  0  0
  -12.0812  -24.6180  -33.8685 H   0  0  0  0  0  0  0  0  0  0  0  0
  -10.3896  -24.5737  -33.3767 H   0  0  0  0  0  0  0  0  0  0  0  0
  -12.0264  -28.4262  -34.3105 H   0  0  0  0  0  0  0  0  0  0  0  0
  -13.1126  -27.0467  -34.4575 H   0  0  0  0  0  0  0  0  0  0  0  0
  -10.7081  -23.8486  -35.7496 H   0  0  0  0  0  0  0  0  0  0  0  0
   -9.6293  -25.2281  -35.5977 H   0  0  0  0  0  0  0  0  0  0  0  0
  -10.6684  -27.6764  -36.1909 H   0  0  0  0  0  0  0  0  0  0  0  0
  -12.3534  -27.7254  -36.6894 H   0  0  0  0  0  0  0  0  0  0  0  0
  -11.1588  -25.6432  -37.4643 H   0  0  0  0  0  0  0  0  0  0  0  0
  -16.4152  -24.3693  -38.7301 H   0  0  0  0  0  0  0  0  0  0  0  0
  -16.1541  -26.1000  -38.5054 H   0  0  0  0  0  0  0  0  0  0  0  0
  -13.1164  -24.3404  -35.9168 H   0  0  0  0  0  0  0  0  0  0  0  0
  -15.1127  -24.1324  -36.5218 H   0  0  0  0  0  0  0  0  0  0  0  0
  1  2  3  0  0  0  0
  2 10  1  0  0  0  0
  3 11  1  0  0  0  0
  3 12  1  0  0  0  0
  3 13  2  0  0  0  0
  4  5  1  0  0  0  0
  4  6  1  0  0  0  0
  5  7  1  0  0  0  0
  6  8  1  0  0  0  0
  7  9  1  0  0  0  0
  8  9  1  0  0  0  0
  9 11  1  0  0  0  0
 10 12  1  0  0  0  0
  1 14  1  0  0  0  0
  4 15  1  0  0  0  0
  4 16  1  0  0  0  0
  5 17  1  0  0  0  0
  5 18  1  0  0  0  0
  6 19  1  0  0  0  0
  6 20  1  0  0  0  0
  7 21  1  0  0  0  0
  7 22  1  0  0  0  0
  8 23  1  0  0  0  0
  8 24  1  0  0  0  0
  9 25  1  0  0  0  0
 10 26  1  0  0  0  0
 10 27  1  0  0  0  0
 11 28  1  0  0  0  0
 12 29  1  0  0  0  0
M  END
> <Name>
IA_108.cdx

> <SourceTag>
IA_108

> <Gold.Version>
5.2

> <Gold.Id.Protein>
6HGV|6HGV_protein|mol2

> <Gold.Goldscore.Fitness>
45.3069

> <Gold.Goldscore.Internal.Vdw>
-1.3695

> <Gold.Goldscore.Internal.Torsion>
-1.2291

> <Gold.Goldscore.External.Vdw>
29.2865

> <Gold.Goldscore.Internal.HBond>
0.0000

> <Gold.Goldscore.External.HBond>
6.1238

> <Gold.Goldscore.Internal.Correction>
-1.5128

> <Gold.Goldscore.Hbonds>
donor molecule, donor type, donor heavy atom, donor atom, acceptor molecule, acceptor atom, score
      L1  H    11    28       P1   853  0.74
      L1  H    12    29       P1   853  0.28

> <Gold.Goldscore.Internal.Vdw.Weighted>
-1.3695

> <Gold.Goldscore.Internal.Torsion.Weighted>
-1.2291

> <Gold.Goldscore.External.Vdw.Weighted>
40.2690

> <Gold.Goldscore.Internal.HBond.Weighted>
0.0000

> <Gold.Goldscore.External.HBond.Weighted>
6.1238

> <Gold.Goldscore.Internal.Correction.Weighted>
-1.5128

> <Gold.Protein.RotatedTorsions>
[ 3781 1176 1175 1172 ] final   96.11 input   60.00 | X-H torsion
[ 3847 1247 1246 1244 ] final  -21.58 input   60.00 | X-H torsion
[ 4507 1931 1930 1928 ] final  102.59 input   60.00 | X-H torsion
[ 3677 1070 1069 1066 ] final  -96.20 input   60.00 | X-H torsion
[ 3525  925  924  922 ] final  100.39 input   59.99 | X-H torsion
[ 4531 1957 1955 1953 ] final  116.83 input   60.00 | X-H torsion

> <Gold.Protein.ActiveResidues>
 PHE267  PRO268  MET310  ASP335  TRP336  MET339  TYR343  THR360  PRO361  ILE363 
 PRO371  SER374  ILE375  ASN378  PHE381  TYR383  GLN384  PHE387  LEU408  LEU417 
 MET419  LEU428  TYR466  MET469  ASN472  ASP496  VAL498  LEU499  MET503  HIS524 
 TRP525 

> <Gold.Protein.RotatedAtoms>
   -2.2790  -30.1100  -30.5913 H   0  0  0  0  0  0  0  0  0  0  0  0  # atno 3525 bound_to 925 
  -11.7907  -23.7774  -31.4027 H   0  0  0  0  0  0  0  0  0  0  0  0  # atno 3677 bound_to 1070
  -10.1685  -37.2802  -32.4298 H   0  0  0  0  0  0  0  0  0  0  0  0  # atno 3781 bound_to 1176
  -15.9327  -28.4477  -37.0708 H   0  0  0  0  0  0  0  0  0  0  0  0  # atno 3847 bound_to 1247
  -12.4340  -24.1053  -39.1312 H   0  0  0  0  0  0  0  0  0  0  0  0  # atno 4507 bound_to 1931
   -2.4280  -34.0334  -36.7971 H   0  0  0  0  0  0  0  0  0  0  0  0  # atno 4531 bound_to 1957
  -10.6534  -37.0267  -33.9623 LP  0  0  0  0  0  0  0  0  0  0  0  0  # atno 5205 bound_to 1176
   -9.2879  -36.3233  -33.4081 LP  0  0  0  0  0  0  0  0  0  0  0  0  # atno 5206 bound_to 1176
  -15.2214  -27.1944  -37.8267 LP  0  0  0  0  0  0  0  0  0  0  0  0  # atno 5215 bound_to 1247
  -14.4050  -28.5924  -37.6124 LP  0  0  0  0  0  0  0  0  0  0  0  0  # atno 5216 bound_to 1247
  -13.4325  -25.3789  -39.3009 LP  0  0  0  0  0  0  0  0  0  0  0  0  # atno 5217 bound_to 1931
  -13.3327  -24.2533  -40.4797 LP  0  0  0  0  0  0  0  0  0  0  0  0  # atno 5218 bound_to 1931
  -11.2945  -22.3375  -30.8296 LP  0  0  0  0  0  0  0  0  0  0  0  0  # atno 5224 bound_to 1070
  -12.7700  -22.9132  -30.4321 LP  0  0  0  0  0  0  0  0  0  0  0  0  # atno 5225 bound_to 1070

$$$$
IA_139.cdx|SeH_inactivess_minimized|sdf|41|dock1
  -GOLD-   4172119303D 1   1.00000     0.00000

 46 48  0  0  0  0  0  0  0  0  1 V2000
  -20.8785  -23.6715  -37.6969 C   0  0  0  0  0  0  0  0  0  0  0  0
  -20.8883  -24.2273  -36.4211 C   0  0  0  0  0  0  0  0  0  0  0  0
  -19.6837  -23.5857  -38.4123 C   0  0  0  0  0  0  0  0  0  0  0  0
  -19.7036  -24.6997  -35.8558 C   0  0  0  0  0  0  0  0  0  0  0  0
  -17.2701  -23.9778  -38.5645 C   0  0  0  0  0  0  0  0  0  0  0  0
  -16.0852  -24.4502  -37.9992 C   0  0  0  0  0  0  0  0  0  0  0  0
  -17.2898  -25.0919  -36.0079 C   0  0  0  0  0  0  0  0  0  0  0  0
  -18.4817  -24.0561  -37.8588 C   0  0  0  0  0  0  0  0  0  0  0  0
  -18.4919  -24.6214  -36.5614 C   0  0  0  0  0  0  0  0  0  0  0  0
  -16.0952  -25.0061  -36.7233 C   0  0  0  0  0  0  0  0  0  0  0  0
  -13.5850  -25.0976  -36.4563 C   0  0  0  0  0  0  0  0  0  0  0  0
   -9.3186  -30.4864  -34.1953 C   0  0  0  0  0  0  0  0  0  0  0  0
   -9.1918  -29.8347  -35.5688 C   0  0  0  0  0  0  0  0  0  0  0  0
  -10.5678  -30.0092  -33.4612 C   0  0  0  0  0  0  0  0  0  0  0  0
   -9.2391  -28.3113  -35.4762 C   0  0  0  0  0  0  0  0  0  0  0  0
  -10.6176  -28.4860  -33.3651 C   0  0  0  0  0  0  0  0  0  0  0  0
  -10.4990  -27.8270  -34.7459 C   0  0  0  0  0  0  0  0  0  0  0  0
  -10.4973  -26.3048  -34.6189 C   0  0  0  0  0  0  0  0  0  0  0  0
  -11.2433  -25.6234  -35.7569 C   0  0  0  0  0  0  0  0  0  0  0  0
  -14.8931  -25.4842  -36.1514 N   0  0  0  0  0  0  0  0  0  0  0  0
  -12.6656  -25.8062  -35.6682 N   0  0  0  0  0  0  0  0  0  0  0  0
  -13.2437  -24.2605  -37.2883 O   0  0  0  0  0  0  0  0  0  0  0  0
  -21.8012  -23.3044  -38.1366 H   0  0  0  0  0  0  0  0  0  0  0  0
  -21.8188  -24.2935  -35.8647 H   0  0  0  0  0  0  0  0  0  0  0  0
  -19.6996  -23.1471  -39.4079 H   0  0  0  0  0  0  0  0  0  0  0  0
  -19.7347  -25.1300  -34.8568 H   0  0  0  0  0  0  0  0  0  0  0  0
  -17.2386  -23.5469  -39.5630 H   0  0  0  0  0  0  0  0  0  0  0  0
  -15.1601  -24.3783  -38.5656 H   0  0  0  0  0  0  0  0  0  0  0  0
  -17.2863  -25.5286  -35.0100 H   0  0  0  0  0  0  0  0  0  0  0  0
   -9.3495  -31.5762  -34.3058 H   0  0  0  0  0  0  0  0  0  0  0  0
   -8.4309  -30.2495  -33.5962 H   0  0  0  0  0  0  0  0  0  0  0  0
   -8.2520  -30.1467  -36.0386 H   0  0  0  0  0  0  0  0  0  0  0  0
  -10.0045  -30.1861  -36.2165 H   0  0  0  0  0  0  0  0  0  0  0  0
  -11.4606  -30.3708  -33.9860 H   0  0  0  0  0  0  0  0  0  0  0  0
  -10.5915  -30.4433  -32.4551 H   0  0  0  0  0  0  0  0  0  0  0  0
   -8.3432  -27.9546  -34.9517 H   0  0  0  0  0  0  0  0  0  0  0  0
   -9.2052  -27.8862  -36.4864 H   0  0  0  0  0  0  0  0  0  0  0  0
  -11.5565  -28.1843  -32.8856 H   0  0  0  0  0  0  0  0  0  0  0  0
   -9.8038  -28.1397  -32.7149 H   0  0  0  0  0  0  0  0  0  0  0  0
  -11.3756  -28.1147  -35.3419 H   0  0  0  0  0  0  0  0  0  0  0  0
   -9.4585  -25.9603  -34.6150 H   0  0  0  0  0  0  0  0  0  0  0  0
  -10.9385  -26.0287  -33.6558 H   0  0  0  0  0  0  0  0  0  0  0  0
  -11.0571  -24.5451  -35.7295 H   0  0  0  0  0  0  0  0  0  0  0  0
  -10.9169  -26.0009  -36.7311 H   0  0  0  0  0  0  0  0  0  0  0  0
  -14.9986  -26.1945  -35.4314 H   0  0  0  0  0  0  0  0  0  0  0  0
  -13.0248  -26.4852  -34.9987 H   0  0  0  0  0  0  0  0  0  0  0  0
  1  2  1  0  0  0  0
  1  3  2  0  0  0  0
  2  4  2  0  0  0  0
  3  8  1  0  0  0  0
  4  9  1  0  0  0  0
  5  6  1  0  0  0  0
  5  8  2  0  0  0  0
  6 10  2  0  0  0  0
  7  9  2  0  0  0  0
  7 10  1  0  0  0  0
  8  9  1  0  0  0  0
 10 20  1  0  0  0  0
 11 20  1  0  0  0  0
 11 21  1  0  0  0  0
 11 22  2  0  0  0  0
 12 13  1  0  0  0  0
 12 14  1  0  0  0  0
 13 15  1  0  0  0  0
 14 16  1  0  0  0  0
 15 17  1  0  0  0  0
 16 17  1  0  0  0  0
 17 18  1  0  0  0  0
 18 19  1  0  0  0  0
 19 21  1  0  0  0  0
  1 23  1  0  0  0  0
  2 24  1  0  0  0  0
  3 25  1  0  0  0  0
  4 26  1  0  0  0  0
  5 27  1  0  0  0  0
  6 28  1  0  0  0  0
  7 29  1  0  0  0  0
 12 30  1  0  0  0  0
 12 31  1  0  0  0  0
 13 32  1  0  0  0  0
 13 33  1  0  0  0  0
 14 34  1  0  0  0  0
 14 35  1  0  0  0  0
 15 36  1  0  0  0  0
 15 37  1  0  0  0  0
 16 38  1  0  0  0  0
 16 39  1  0  0  0  0
 17 40  1  0  0  0  0
 18 41  1  0  0  0  0
 18 42  1  0  0  0  0
 19 43  1  0  0  0  0
 19 44  1  0  0  0  0
 20 45  1  0  0  0  0
 21 46  1  0  0  0  0
M  END
> <Name>
IA_139.cdx

> <SourceTag>
IA_139

> <Gold.Version>
5.2

> <Gold.Id.Protein>
6HGV|6HGV_protein|mol2

> <Gold.Goldscore.Fitness>
57.6142

> <Gold.Goldscore.Internal.Vdw>
-3.8655

> <Gold.Goldscore.Internal.Torsion>
-3.9687

> <Gold.Goldscore.External.Vdw>
43.6351

> <Gold.Goldscore.Internal.HBond>
0.0000

> <Gold.Goldscore.External.HBond>
0.4266

> <Gold.Goldscore.Internal.Correction>
-5.0236

> <Gold.Goldscore.Hbonds>
donor molecule, donor type, donor heavy atom, donor atom, acceptor molecule, acceptor atom, score
      P1  H  1931  4507       L1    22  0.21

> <Gold.Goldscore.Internal.Vdw.Weighted>
-3.8655

> <Gold.Goldscore.Internal.Torsion.Weighted>
-3.9687

> <Gold.Goldscore.External.Vdw.Weighted>
59.9982

> <Gold.Goldscore.Internal.HBond.Weighted>
0.0000

> <Gold.Goldscore.External.HBond.Weighted>
0.4266

> <Gold.Goldscore.Internal.Correction.Weighted>
-5.0236

> <Gold.Protein.RotatedTorsions>
[ 3781 1176 1175 1172 ] final   -9.38 input   60.00 | X-H torsion
[ 3847 1247 1246 1244 ] final  -68.93 input   60.00 | X-H torsion
[ 4507 1931 1930 1928 ] final   48.33 input   60.00 | X-H torsion
[ 3677 1070 1069 1066 ] final -108.05 input   60.00 | X-H torsion
[ 3525  925  924  922 ] final  146.44 input   59.99 | X-H torsion
[ 4531 1957 1955 1953 ] final  149.28 input   60.00 | X-H torsion

> <Gold.Protein.ActiveResidues>
 PHE267  PRO268  MET310  ASP335  TRP336  MET339  TYR343  THR360  PRO361  ILE363 
 PRO371  SER374  ILE375  ASN378  PHE381  TYR383  GLN384  PHE387  LEU408  LEU417 
 MET419  LEU428  TYR466  MET469  ASN472  ASP496  VAL498  LEU499  MET503  HIS524 
 TRP525 

> <Gold.Protein.RotatedAtoms>
   -2.0568  -30.2690  -29.9118 H   0  0  0  0  0  0  0  0  0  0  0  0  # atno 3525 bound_to 925 
  -11.6204  -23.6933  -31.4386 H   0  0  0  0  0  0  0  0  0  0  0  0  # atno 3677 bound_to 1070
  -10.7551  -37.1605  -33.7946 H   0  0  0  0  0  0  0  0  0  0  0  0  # atno 3781 bound_to 1176
  -16.0370  -27.7395  -37.3008 H   0  0  0  0  0  0  0  0  0  0  0  0  # atno 3847 bound_to 1247
  -12.7424  -24.8261  -38.7929 H   0  0  0  0  0  0  0  0  0  0  0  0  # atno 4507 bound_to 1931
   -1.9141  -34.0269  -36.8947 H   0  0  0  0  0  0  0  0  0  0  0  0  # atno 4531 bound_to 1957
   -9.3817  -36.3042  -33.6262 LP  0  0  0  0  0  0  0  0  0  0  0  0  # atno 5205 bound_to 1176
   -9.9688  -37.1665  -32.3699 LP  0  0  0  0  0  0  0  0  0  0  0  0  # atno 5206 bound_to 1176
  -14.5600  -27.5403  -37.9540 LP  0  0  0  0  0  0  0  0  0  0  0  0  # atno 5215 bound_to 1247
  -14.9615  -28.9597  -37.2534 LP  0  0  0  0  0  0  0  0  0  0  0  0  # atno 5216 bound_to 1247
  -13.7023  -25.1171  -40.0743 LP  0  0  0  0  0  0  0  0  0  0  0  0  # atno 5217 bound_to 1931
  -12.7524  -23.7892  -40.0470 LP  0  0  0  0  0  0  0  0  0  0  0  0  # atno 5218 bound_to 1931
  -11.4246  -22.2489  -30.7152 LP  0  0  0  0  0  0  0  0  0  0  0  0  # atno 5224 bound_to 1070
  -12.8114  -23.0865  -30.5104 LP  0  0  0  0  0  0  0  0  0  0  0  0  # atno 5225 bound_to 1070

$$$$
IA_137.cdx|SeH_inactivess_minimized|sdf|39|dock9
  -GOLD-   4172119283D 1   1.00000     0.00000

 44 45  0  0  0  0  0  0  0  0  1 V2000
  -20.0494  -23.7304  -37.3095 C   0  0  0  0  0  0  0  0  0  0  0  0
  -19.4125  -23.3309  -38.4808 C   0  0  0  0  0  0  0  0  0  0  0  0
  -19.3254  -24.3739  -36.3054 C   0  0  0  0  0  0  0  0  0  0  0  0
  -18.0493  -23.5732  -38.6522 C   0  0  0  0  0  0  0  0  0  0  0  0
  -17.2085  -25.2724  -35.4607 C   0  0  0  0  0  0  0  0  0  0  0  0
  -15.8453  -25.5149  -35.6322 C   0  0  0  0  0  0  0  0  0  0  0  0
  -15.9322  -24.4718  -37.8076 C   0  0  0  0  0  0  0  0  0  0  0  0
  -17.9526  -24.6260  -36.4610 C   0  0  0  0  0  0  0  0  0  0  0  0
  -17.3050  -24.2197  -37.6520 C   0  0  0  0  0  0  0  0  0  0  0  0
  -15.2084  -25.1154  -36.8034 C   0  0  0  0  0  0  0  0  0  0  0  0
  -13.0905  -26.4656  -36.5350 C   0  0  0  0  0  0  0  0  0  0  0  0
  -11.5399  -24.9379  -33.6102 C   0  0  0  0  0  0  0  0  0  0  0  0
   -7.5880  -29.6697  -34.7018 C   0  0  0  0  0  0  0  0  0  0  0  0
  -10.7418  -27.3199  -36.5898 C   0  0  0  0  0  0  0  0  0  0  0  0
  -10.2860  -25.7612  -33.4068 C   0  0  0  0  0  0  0  0  0  0  0  0
   -8.3789  -28.5024  -35.2527 C   0  0  0  0  0  0  0  0  0  0  0  0
  -10.4942  -27.4256  -35.0842 C   0  0  0  0  0  0  0  0  0  0  0  0
  -13.8450  -25.3589  -36.9735 N   0  0  0  0  0  0  0  0  0  0  0  0
  -11.7487  -26.3331  -36.9064 N   0  0  0  0  0  0  0  0  0  0  0  0
  -13.5221  -27.4315  -35.9100 O   0  0  0  0  0  0  0  0  0  0  0  0
   -9.8269  -26.2253  -34.6694 O   0  0  0  0  0  0  0  0  0  0  0  0
   -9.7189  -28.5909  -34.7882 O   0  0  0  0  0  0  0  0  0  0  0  0
  -21.1105  -23.5409  -37.1764 H   0  0  0  0  0  0  0  0  0  0  0  0
  -19.9768  -22.8302  -39.2622 H   0  0  0  0  0  0  0  0  0  0  0  0
  -19.8440  -24.6775  -35.3983 H   0  0  0  0  0  0  0  0  0  0  0  0
  -17.5722  -23.2527  -39.5762 H   0  0  0  0  0  0  0  0  0  0  0  0
  -17.6855  -25.5937  -34.5372 H   0  0  0  0  0  0  0  0  0  0  0  0
  -15.2911  -26.0172  -34.8431 H   0  0  0  0  0  0  0  0  0  0  0  0
  -15.4239  -24.1637  -38.7203 H   0  0  0  0  0  0  0  0  0  0  0  0
  -11.8713  -24.4923  -32.6680 H   0  0  0  0  0  0  0  0  0  0  0  0
  -11.3629  -24.1379  -34.3367 H   0  0  0  0  0  0  0  0  0  0  0  0
  -12.3482  -25.5586  -34.0109 H   0  0  0  0  0  0  0  0  0  0  0  0
   -7.5174  -29.6136  -33.6119 H   0  0  0  0  0  0  0  0  0  0  0  0
   -8.0586  -30.6192  -34.9772 H   0  0  0  0  0  0  0  0  0  0  0  0
   -6.5764  -29.6825  -35.1211 H   0  0  0  0  0  0  0  0  0  0  0  0
   -9.8351  -27.0275  -37.1264 H   0  0  0  0  0  0  0  0  0  0  0  0
  -11.0987  -28.2740  -36.9905 H   0  0  0  0  0  0  0  0  0  0  0  0
  -10.4935  -26.6249  -32.7680 H   0  0  0  0  0  0  0  0  0  0  0  0
   -9.4995  -25.1557  -32.9465 H   0  0  0  0  0  0  0  0  0  0  0  0
   -8.3829  -28.5236  -36.3466 H   0  0  0  0  0  0  0  0  0  0  0  0
   -7.9505  -27.5543  -34.9141 H   0  0  0  0  0  0  0  0  0  0  0  0
  -11.4635  -27.4702  -34.5700 H   0  0  0  0  0  0  0  0  0  0  0  0
  -13.3102  -24.6477  -37.4830 H   0  0  0  0  0  0  0  0  0  0  0  0
  -11.4690  -25.5049  -37.4224 H   0  0  0  0  0  0  0  0  0  0  0  0
  1  2  1  0  0  0  0
  1  3  2  0  0  0  0
  2  4  2  0  0  0  0
  3  8  1  0  0  0  0
  4  9  1  0  0  0  0
  5  6  1  0  0  0  0
  5  8  2  0  0  0  0
  6 10  2  0  0  0  0
  7  9  2  0  0  0  0
  7 10  1  0  0  0  0
  8  9  1  0  0  0  0
 10 18  1  0  0  0  0
 11 18  1  0  0  0  0
 11 19  1  0  0  0  0
 11 20  2  0  0  0  0
 12 15  1  0  0  0  0
 13 16  1  0  0  0  0
 14 17  1  0  0  0  0
 14 19  1  0  0  0  0
 15 21  1  0  0  0  0
 16 22  1  0  0  0  0
 17 21  1  0  0  0  0
 17 22  1  0  0  0  0
  1 23  1  0  0  0  0
  2 24  1  0  0  0  0
  3 25  1  0  0  0  0
  4 26  1  0  0  0  0
  5 27  1  0  0  0  0
  6 28  1  0  0  0  0
  7 29  1  0  0  0  0
 12 30  1  0  0  0  0
 12 31  1  0  0  0  0
 12 32  1  0  0  0  0
 13 33  1  0  0  0  0
 13 34  1  0  0  0  0
 13 35  1  0  0  0  0
 14 36  1  0  0  0  0
 14 37  1  0  0  0  0
 15 38  1  0  0  0  0
 15 39  1  0  0  0  0
 16 40  1  0  0  0  0
 16 41  1  0  0  0  0
 17 42  1  0  0  0  0
 18 43  1  0  0  0  0
 19 44  1  0  0  0  0
M  END
> <Name>
IA_137.cdx

> <SourceTag>
IA_137

> <Gold.Version>
5.2

> <Gold.Id.Protein>
6HGV|6HGV_protein|mol2

> <Gold.Goldscore.Fitness>
59.6061

> <Gold.Goldscore.Internal.Vdw>
-6.2932

> <Gold.Goldscore.Internal.Torsion>
-7.2318

> <Gold.Goldscore.External.Vdw>
47.3706

> <Gold.Goldscore.Internal.HBond>
0.0000

> <Gold.Goldscore.External.HBond>
0.0369

> <Gold.Goldscore.Internal.Correction>
-7.9597

> <Gold.Goldscore.Hbonds>
donor molecule, donor type, donor heavy atom, donor atom, acceptor molecule, acceptor atom, score
      P1  H  1256  3854       L1    22  0.02

> <Gold.Goldscore.Internal.Vdw.Weighted>
-6.2932

> <Gold.Goldscore.Internal.Torsion.Weighted>
-7.2318

> <Gold.Goldscore.External.Vdw.Weighted>
65.1345

> <Gold.Goldscore.Internal.HBond.Weighted>
0.0000

> <Gold.Goldscore.External.HBond.Weighted>
0.0369

> <Gold.Goldscore.Internal.Correction.Weighted>
-7.9597

> <Gold.Protein.RotatedTorsions>
[ 3781 1176 1175 1172 ] final  130.74 input   60.00 | X-H torsion
[ 3847 1247 1246 1244 ] final  -25.24 input   60.00 | X-H torsion
[ 4507 1931 1930 1928 ] final  -66.52 input   60.00 | X-H torsion
[ 3677 1070 1069 1066 ] final  173.40 input   60.00 | X-H torsion
[ 3525  925  924  922 ] final   49.89 input   59.99 | X-H torsion
[ 4531 1957 1955 1953 ] final   39.73 input   60.00 | X-H torsion

> <Gold.Protein.ActiveResidues>
 PHE267  PRO268  MET310  ASP335  TRP336  MET339  TYR343  THR360  PRO361  ILE363 
 PRO371  SER374  ILE375  ASN378  PHE381  TYR383  GLN384  PHE387  LEU408  LEU417 
 MET419  LEU428  TYR466  MET469  ASN472  ASP496  VAL498  LEU499  MET503  HIS524 
 TRP525 

> <Gold.Protein.RotatedAtoms>
   -2.9563  -29.7894  -30.8677 H   0  0  0  0  0  0  0  0  0  0  0  0  # atno 3525 bound_to 925 
  -11.1059  -22.6764  -31.1124 H   0  0  0  0  0  0  0  0  0  0  0  0  # atno 3677 bound_to 1070
   -9.7001  -36.9799  -32.3973 H   0  0  0  0  0  0  0  0  0  0  0  0  # atno 3781 bound_to 1176
  -15.9611  -28.3957  -37.0796 H   0  0  0  0  0  0  0  0  0  0  0  0  # atno 3847 bound_to 1247
  -13.6930  -25.1658  -40.0055 H   0  0  0  0  0  0  0  0  0  0  0  0  # atno 4507 bound_to 1931
   -3.0978  -33.0886  -36.6534 H   0  0  0  0  0  0  0  0  0  0  0  0  # atno 4531 bound_to 1957
  -10.8339  -37.3145  -33.5155 LP  0  0  0  0  0  0  0  0  0  0  0  0  # atno 5205 bound_to 1176
   -9.5791  -36.3380  -33.8877 LP  0  0  0  0  0  0  0  0  0  0  0  0  # atno 5206 bound_to 1176
  -15.1647  -27.2015  -37.8462 LP  0  0  0  0  0  0  0  0  0  0  0  0  # atno 5215 bound_to 1247
  -14.4331  -28.6377  -37.5840 LP  0  0  0  0  0  0  0  0  0  0  0  0  # atno 5216 bound_to 1247
  -12.8034  -23.8074  -40.1121 LP  0  0  0  0  0  0  0  0  0  0  0  0  # atno 5217 bound_to 1931
  -12.6939  -24.7567  -38.7880 LP  0  0  0  0  0  0  0  0  0  0  0  0  # atno 5218 bound_to 1931
  -12.5218  -22.5141  -30.3268 LP  0  0  0  0  0  0  0  0  0  0  0  0  # atno 5224 bound_to 1070
  -12.2323  -23.8453  -31.2272 LP  0  0  0  0  0  0  0  0  0  0  0  0  # atno 5225 bound_to 1070

$$$$
IA_37|SeH_inactivess_minimized|sdf|123|dock7
  -GOLD-   4172121253D 1   1.00000     0.00000

 39 40  0  0  0  0  0  0  0  0  1 V2000
  -19.0883  -23.9347  -36.8977 C   0  0  0  0  0  0  0  0  0  0  0  0
  -18.5711  -24.8478  -35.9787 C   0  0  0  0  0  0  0  0  0  0  0  0
  -18.2690  -23.4126  -37.8987 C   0  0  0  0  0  0  0  0  0  0  0  0
  -17.2346  -25.2387  -36.0609 C   0  0  0  0  0  0  0  0  0  0  0  0
  -16.9327  -23.8036  -37.9808 C   0  0  0  0  0  0  0  0  0  0  0  0
  -16.4155  -24.7167  -37.0620 C   0  0  0  0  0  0  0  0  0  0  0  0
  -14.2646  -25.5920  -36.0871 C   0  0  0  0  0  0  0  0  0  0  0  0
   -9.2818  -25.9887  -34.1191 C   0  0  0  0  0  0  0  0  0  0  0  0
   -9.6323  -27.2394  -34.9191 C   0  0  0  0  0  0  0  0  0  0  0  0
  -10.5301  -25.3089  -33.5651 C   0  0  0  0  0  0  0  0  0  0  0  0
  -10.6420  -26.9369  -36.0239 C   0  0  0  0  0  0  0  0  0  0  0  0
  -11.5415  -25.0033  -34.6676 C   0  0  0  0  0  0  0  0  0  0  0  0
  -11.9032  -26.2610  -35.4691 C   0  0  0  0  0  0  0  0  0  0  0  0
  -16.0785  -23.2279  -39.0633 C   0  0  0  0  0  0  0  0  0  0  0  0
  -12.8737  -25.9202  -36.5985 C   0  0  0  0  0  0  0  0  0  0  0  0
  -15.0622  -25.1258  -37.1283 N   0  0  0  0  0  0  0  0  0  0  0  0
  -14.5831  -25.7375  -34.9116 O   0  0  0  0  0  0  0  0  0  0  0  0
  -14.8978  -22.6831  -38.4894 O   0  0  0  0  0  0  0  0  0  0  0  0
  -20.1290  -23.6306  -36.8336 H   0  0  0  0  0  0  0  0  0  0  0  0
  -19.2091  -25.2545  -35.1994 H   0  0  0  0  0  0  0  0  0  0  0  0
  -18.6815  -22.7019  -38.6099 H   0  0  0  0  0  0  0  0  0  0  0  0
  -16.8436  -25.9510  -35.3387 H   0  0  0  0  0  0  0  0  0  0  0  0
   -8.6102  -26.2544  -33.2949 H   0  0  0  0  0  0  0  0  0  0  0  0
   -8.7385  -25.2852  -34.7618 H   0  0  0  0  0  0  0  0  0  0  0  0
   -8.7215  -27.6629  -35.3575 H   0  0  0  0  0  0  0  0  0  0  0  0
  -10.0459  -28.0001  -34.2454 H   0  0  0  0  0  0  0  0  0  0  0  0
  -10.9957  -25.9572  -32.8126 H   0  0  0  0  0  0  0  0  0  0  0  0
  -10.2479  -24.3805  -33.0556 H   0  0  0  0  0  0  0  0  0  0  0  0
  -10.1708  -26.2894  -36.7746 H   0  0  0  0  0  0  0  0  0  0  0  0
  -10.9108  -27.8697  -36.5338 H   0  0  0  0  0  0  0  0  0  0  0  0
  -12.4448  -24.5716  -34.2202 H   0  0  0  0  0  0  0  0  0  0  0  0
  -11.1239  -24.2406  -35.3376 H   0  0  0  0  0  0  0  0  0  0  0  0
  -12.4054  -26.9674  -34.7946 H   0  0  0  0  0  0  0  0  0  0  0  0
  -15.7948  -23.9957  -39.7946 H   0  0  0  0  0  0  0  0  0  0  0  0
  -16.6079  -22.4337  -39.6053 H   0  0  0  0  0  0  0  0  0  0  0  0
  -12.9390  -26.7717  -37.2807 H   0  0  0  0  0  0  0  0  0  0  0  0
  -12.4879  -25.0607  -37.1526 H   0  0  0  0  0  0  0  0  0  0  0  0
  -14.6350  -25.0677  -38.0504 H   0  0  0  0  0  0  0  0  0  0  0  0
  -15.1825  -22.0325  -37.8273 H   0  0  0  0  0  0  0  0  0  0  0  0
  1  2  1  0  0  0  0
  1  3  2  0  0  0  0
  2  4  2  0  0  0  0
  3  5  1  0  0  0  0
  4  6  1  0  0  0  0
  5  6  2  0  0  0  0
  5 14  1  0  0  0  0
  6 16  1  0  0  0  0
  7 15  1  0  0  0  0
  7 16  1  0  0  0  0
  7 17  2  0  0  0  0
  8  9  1  0  0  0  0
  8 10  1  0  0  0  0
  9 11  1  0  0  0  0
 10 12  1  0  0  0  0
 11 13  1  0  0  0  0
 12 13  1  0  0  0  0
 13 15  1  0  0  0  0
 14 18  1  0  0  0  0
  1 19  1  0  0  0  0
  2 20  1  0  0  0  0
  3 21  1  0  0  0  0
  4 22  1  0  0  0  0
  8 23  1  0  0  0  0
  8 24  1  0  0  0  0
  9 25  1  0  0  0  0
  9 26  1  0  0  0  0
 10 27  1  0  0  0  0
 10 28  1  0  0  0  0
 11 29  1  0  0  0  0
 11 30  1  0  0  0  0
 12 31  1  0  0  0  0
 12 32  1  0  0  0  0
 13 33  1  0  0  0  0
 14 34  1  0  0  0  0
 14 35  1  0  0  0  0
 15 36  1  0  0  0  0
 15 37  1  0  0  0  0
 16 38  1  0  0  0  0
 18 39  1  0  0  0  0
M  END
> <Name>
IA_37

> <SourceTag>
IA_37

> <Gold.Version>
5.2

> <Gold.Id.Protein>
6HGV|6HGV_protein|mol2

> <Gold.Goldscore.Fitness>
62.8724

> <Gold.Goldscore.Internal.Vdw>
-4.3943

> <Gold.Goldscore.Internal.Torsion>
-2.4954

> <Gold.Goldscore.External.Vdw>
45.8966

> <Gold.Goldscore.Internal.HBond>
0.0000

> <Gold.Goldscore.External.HBond>
0.8072

> <Gold.Goldscore.Internal.Correction>
-5.8470

> <Gold.Goldscore.Hbonds>
donor molecule, donor type, donor heavy atom, donor atom, acceptor molecule, acceptor atom, score
      L1  H    16    38       P1  1931  0.40

> <Gold.Goldscore.Internal.Vdw.Weighted>
-4.3943

> <Gold.Goldscore.Internal.Torsion.Weighted>
-2.4954

> <Gold.Goldscore.External.Vdw.Weighted>
63.1079

> <Gold.Goldscore.Internal.HBond.Weighted>
0.0000

> <Gold.Goldscore.External.HBond.Weighted>
0.8072

> <Gold.Goldscore.Internal.Correction.Weighted>
-5.8470

> <Gold.Protein.RotatedTorsions>
[ 3781 1176 1175 1172 ] final -120.50 input   60.00 | X-H torsion
[ 3847 1247 1246 1244 ] final  -79.82 input   60.00 | X-H torsion
[ 4507 1931 1930 1928 ] final  150.39 input   60.00 | X-H torsion
[ 3677 1070 1069 1066 ] final  -63.30 input   60.00 | X-H torsion
[ 3525  925  924  922 ] final  179.46 input   59.99 | X-H torsion
[ 4531 1957 1955 1953 ] final -101.40 input   60.00 | X-H torsion

> <Gold.Protein.ActiveResidues>
 PHE267  PRO268  MET310  ASP335  TRP336  MET339  TYR343  THR360  PRO361  ILE363 
 PRO371  SER374  ILE375  ASN378  PHE381  TYR383  GLN384  PHE387  LEU408  LEU417 
 MET419  LEU428  TYR466  MET469  ASN472  ASP496  VAL498  LEU499  MET503  HIS524 
 TRP525 

> <Gold.Protein.RotatedAtoms>
   -2.2254  -30.2416  -29.4079 H   0  0  0  0  0  0  0  0  0  0  0  0  # atno 3525 bound_to 925 
  -12.2758  -23.8339  -31.1964 H   0  0  0  0  0  0  0  0  0  0  0  0  # atno 3677 bound_to 1070
   -9.4629  -36.3164  -33.7463 H   0  0  0  0  0  0  0  0  0  0  0  0  # atno 3781 bound_to 1176
  -15.9782  -27.5918  -37.3804 H   0  0  0  0  0  0  0  0  0  0  0  0  # atno 3847 bound_to 1247
  -12.5984  -23.7827  -39.7979 H   0  0  0  0  0  0  0  0  0  0  0  0  # atno 4507 bound_to 1931
   -1.4356  -32.5777  -36.9606 H   0  0  0  0  0  0  0  0  0  0  0  0  # atno 4531 bound_to 1957
   -9.8467  -37.0867  -32.3653 LP  0  0  0  0  0  0  0  0  0  0  0  0  # atno 5205 bound_to 1176
  -10.8051  -37.2340  -33.6793 LP  0  0  0  0  0  0  0  0  0  0  0  0  # atno 5206 bound_to 1176
  -14.4533  -27.6835  -37.9411 LP  0  0  0  0  0  0  0  0  0  0  0  0  # atno 5215 bound_to 1247
  -15.1273  -28.9652  -37.1863 LP  0  0  0  0  0  0  0  0  0  0  0  0  # atno 5216 bound_to 1247
  -12.9265  -25.0506  -38.8321 LP  0  0  0  0  0  0  0  0  0  0  0  0  # atno 5217 bound_to 1931
  -13.6732  -24.9065  -40.2772 LP  0  0  0  0  0  0  0  0  0  0  0  0  # atno 5218 bound_to 1931
  -11.0927  -22.7178  -31.1454 LP  0  0  0  0  0  0  0  0  0  0  0  0  # atno 5224 bound_to 1070
  -12.4832  -22.4760  -30.3240 LP  0  0  0  0  0  0  0  0  0  0  0  0  # atno 5225 bound_to 1070

$$$$
IA_70.cdx|SeH_inactivess_minimized|sdf|148|dock10
  -GOLD-   4172122 63D 1   1.00000     0.00000

 14 13  0  0  0  0  0  0  0  0  1 V2000
  -11.2692  -25.8788  -36.4867 C   0  0  0  0  0  0  0  0  0  0  0  0
   -9.7653  -26.3512  -34.5454 C   0  0  0  0  0  0  0  0  0  0  0  0
  -11.8145  -25.0103  -34.2024 C   0  0  0  0  0  0  0  0  0  0  0  0
  -12.2460  -25.0251  -36.9600 N   0  0  0  0  0  0  0  0  0  0  0  0
  -10.9595  -25.7517  -35.1256 N   0  0  0  0  0  0  0  0  0  0  0  0
  -10.7333  -26.6959  -37.2407 O   0  0  0  0  0  0  0  0  0  0  0  0
  -10.0452  -27.1027  -33.8025 H   0  0  0  0  0  0  0  0  0  0  0  0
   -9.1560  -25.5850  -34.0586 H   0  0  0  0  0  0  0  0  0  0  0  0
   -9.1673  -26.8321  -35.3242 H   0  0  0  0  0  0  0  0  0  0  0  0
  -11.7130  -23.9360  -34.3768 H   0  0  0  0  0  0  0  0  0  0  0  0
  -11.5318  -25.2272  -33.1686 H   0  0  0  0  0  0  0  0  0  0  0  0
  -12.8608  -25.2929  -34.3463 H   0  0  0  0  0  0  0  0  0  0  0  0
  -12.5196  -25.0625  -37.9345 H   0  0  0  0  0  0  0  0  0  0  0  0
  -12.6909  -24.3604  -36.3353 H   0  0  0  0  0  0  0  0  0  0  0  0
  1  4  1  0  0  0  0
  1  5  1  0  0  0  0
  1  6  2  0  0  0  0
  2  5  1  0  0  0  0
  3  5  1  0  0  0  0
  2  7  1  0  0  0  0
  2  8  1  0  0  0  0
  2  9  1  0  0  0  0
  3 10  1  0  0  0  0
  3 11  1  0  0  0  0
  3 12  1  0  0  0  0
  4 13  1  0  0  0  0
  4 14  1  0  0  0  0
M  END
> <Name>
IA_70.cdx

> <SourceTag>
IA_70

> <Gold.Version>
5.2

> <Gold.Id.Protein>
6HGV|6HGV_protein|mol2

> <Gold.Goldscore.Fitness>
31.3678

> <Gold.Goldscore.Internal.Vdw>
-4.3410

> <Gold.Goldscore.Internal.Torsion>
-2.7992

> <Gold.Goldscore.External.Vdw>
18.2519

> <Gold.Goldscore.Internal.HBond>
0.0000

> <Gold.Goldscore.External.HBond>
6.7012

> <Gold.Goldscore.Internal.Correction>
-6.7104

> <Gold.Goldscore.Hbonds>
donor molecule, donor type, donor heavy atom, donor atom, acceptor molecule, acceptor atom, score
      L1  H     4    13       P1  1931  1.00
      L1  H     4    14       P1   853  0.78

> <Gold.Goldscore.Internal.Vdw.Weighted>
-4.3410

> <Gold.Goldscore.Internal.Torsion.Weighted>
-2.7992

> <Gold.Goldscore.External.Vdw.Weighted>
25.0963

> <Gold.Goldscore.Internal.HBond.Weighted>
0.0000

> <Gold.Goldscore.External.HBond.Weighted>
6.7012

> <Gold.Goldscore.Internal.Correction.Weighted>
-6.7104

> <Gold.Protein.RotatedTorsions>
[ 3781 1176 1175 1172 ] final -124.04 input   60.00 | X-H torsion
[ 3847 1247 1246 1244 ] final -178.99 input   60.00 | X-H torsion
[ 4507 1931 1930 1928 ] final  -86.10 input   60.00 | X-H torsion
[ 3677 1070 1069 1066 ] final -138.93 input   60.00 | X-H torsion
[ 3525  925  924  922 ] final   -4.94 input   59.99 | X-H torsion
[ 4531 1957 1955 1953 ] final   14.21 input   60.00 | X-H torsion

> <Gold.Protein.ActiveResidues>
 PHE267  PRO268  MET310  ASP335  TRP336  MET339  TYR343  THR360  PRO361  ILE363 
 PRO371  SER374  ILE375  ASN378  PHE381  TYR383  GLN384  PHE387  LEU408  LEU417 
 MET419  LEU428  TYR466  MET469  ASN472  ASP496  VAL498  LEU499  MET503  HIS524 
 TRP525 

> <Gold.Protein.RotatedAtoms>
   -3.6394  -29.5336  -30.4080 H   0  0  0  0  0  0  0  0  0  0  0  0  # atno 3525 bound_to 925 
  -11.2592  -23.3503  -31.4208 H   0  0  0  0  0  0  0  0  0  0  0  0  # atno 3677 bound_to 1070
   -9.4301  -36.3122  -33.6989 H   0  0  0  0  0  0  0  0  0  0  0  0  # atno 3781 bound_to 1176
  -14.6814  -27.4319  -37.9505 H   0  0  0  0  0  0  0  0  0  0  0  0  # atno 3847 bound_to 1247
  -13.6776  -24.9495  -40.2386 H   0  0  0  0  0  0  0  0  0  0  0  0  # atno 4507 bound_to 1931
   -2.9888  -32.6898  -36.6672 H   0  0  0  0  0  0  0  0  0  0  0  0  # atno 4531 bound_to 1957
   -9.8951  -37.1192  -32.3645 LP  0  0  0  0  0  0  0  0  0  0  0  0  # atno 5205 bound_to 1176
  -10.7899  -37.2056  -33.7278 LP  0  0  0  0  0  0  0  0  0  0  0  0  # atno 5206 bound_to 1176
  -14.8172  -28.9270  -37.3226 LP  0  0  0  0  0  0  0  0  0  0  0  0  # atno 5215 bound_to 1247
  -16.0694  -27.8828  -37.2306 LP  0  0  0  0  0  0  0  0  0  0  0  0  # atno 5216 bound_to 1247
  -12.6241  -23.7722  -39.8487 LP  0  0  0  0  0  0  0  0  0  0  0  0  # atno 5217 bound_to 1931
  -12.8887  -25.0098  -38.8167 LP  0  0  0  0  0  0  0  0  0  0  0  0  # atno 5218 bound_to 1931
  -11.8526  -22.1760  -30.4632 LP  0  0  0  0  0  0  0  0  0  0  0  0  # atno 5224 bound_to 1070
  -12.7471  -23.5049  -30.7803 LP  0  0  0  0  0  0  0  0  0  0  0  0  # atno 5225 bound_to 1070

$$$$
IA_150.cdx|SeH_inactivess_minimized|sdf|52|dock2
  -GOLD-   4172119473D 1   1.00000     0.00000

 30 31  0  0  0  0  0  0  0  0  1 V2000
   -9.4184  -26.6513  -35.3442 C   0  0  0  0  0  0  0  0  0  0  0  0
  -10.2393  -27.2727  -36.2852 C   0  0  0  0  0  0  0  0  0  0  0  0
   -9.9518  -25.7027  -34.4716 C   0  0  0  0  0  0  0  0  0  0  0  0
  -17.8434  -24.0112  -38.5654 C   0  0  0  0  0  0  0  0  0  0  0  0
  -12.1269  -25.9970  -35.4811 C   0  0  0  0  0  0  0  0  0  0  0  0
  -16.6854  -24.4353  -39.2171 C   0  0  0  0  0  0  0  0  0  0  0  0
  -11.5935  -26.9456  -36.3537 C   0  0  0  0  0  0  0  0  0  0  0  0
  -11.3060  -25.3756  -34.5400 C   0  0  0  0  0  0  0  0  0  0  0  0
  -16.6978  -24.6438  -40.5962 C   0  0  0  0  0  0  0  0  0  0  0  0
  -19.0264  -24.0041  -40.6719 C   0  0  0  0  0  0  0  0  0  0  0  0
  -19.0138  -23.7956  -39.2928 C   0  0  0  0  0  0  0  0  0  0  0  0
  -17.8684  -24.4282  -41.3236 C   0  0  0  0  0  0  0  0  0  0  0  0
  -13.5393  -25.6560  -35.5521 C   0  0  0  0  0  0  0  0  0  0  0  0
  -15.3843  -24.9886  -37.1233 C   0  0  0  0  0  0  0  0  0  0  0  0
  -15.5003  -24.6538  -38.4766 N   0  0  0  0  0  0  0  0  0  0  0  0
  -14.0478  -25.3213  -36.8214 N   0  0  0  0  0  0  0  0  0  0  0  0
  -14.2472  -25.6928  -34.5309 O   0  0  0  0  0  0  0  0  0  0  0  0
  -16.2874  -25.0003  -36.2908 O   0  0  0  0  0  0  0  0  0  0  0  0
  -12.3736  -27.5489  -37.2619 F   0  0  0  0  0  0  0  0  0  0  0  0
  -11.8083  -24.4626  -33.6966 F   0  0  0  0  0  0  0  0  0  0  0  0
  -15.5817  -25.0526  -41.2194 F   0  0  0  0  0  0  0  0  0  0  0  0
  -20.1529  -23.7965  -41.3714 F   0  0  0  0  0  0  0  0  0  0  0  0
  -20.4398  -23.2726  -38.4819 Cl  0  0  0  0  0  0  0  0  0  0  0  0
  -17.8834  -24.6860  -43.0265 Cl  0  0  0  0  0  0  0  0  0  0  0  0
   -8.3641  -26.9062  -35.2908 H   0  0  0  0  0  0  0  0  0  0  0  0
   -9.8241  -28.0111  -36.9649 H   0  0  0  0  0  0  0  0  0  0  0  0
   -9.3128  -25.2185  -33.7390 H   0  0  0  0  0  0  0  0  0  0  0  0
  -17.8302  -23.8493  -37.4892 H   0  0  0  0  0  0  0  0  0  0  0  0
  -14.6317  -24.5540  -38.9959 H   0  0  0  0  0  0  0  0  0  0  0  0
  -13.3886  -25.3192  -37.5940 H   0  0  0  0  0  0  0  0  0  0  0  0
  1  2  2  0  0  0  0
  1  3  1  0  0  0  0
  2  7  1  0  0  0  0
  3  8  2  0  0  0  0
  4  6  2  0  0  0  0
  4 11  1  0  0  0  0
  5  7  2  0  0  0  0
  5  8  1  0  0  0  0
  5 13  1  0  0  0  0
  6  9  1  0  0  0  0
  6 15  1  0  0  0  0
  7 19  1  0  0  0  0
  8 20  1  0  0  0  0
  9 12  2  0  0  0  0
  9 21  1  0  0  0  0
 10 11  2  0  0  0  0
 10 12  1  0  0  0  0
 10 22  1  0  0  0  0
 11 23  1  0  0  0  0
 12 24  1  0  0  0  0
 13 16  1  0  0  0  0
 13 17  2  0  0  0  0
 14 15  1  0  0  0  0
 14 16  1  0  0  0  0
 14 18  2  0  0  0  0
  1 25  1  0  0  0  0
  2 26  1  0  0  0  0
  3 27  1  0  0  0  0
  4 28  1  0  0  0  0
 15 29  1  0  0  0  0
 16 30  1  0  0  0  0
M  END
> <Name>
IA_150.cdx

> <SourceTag>
IA_150

> <Gold.Version>
5.2

> <Gold.Id.Protein>
6HGV|6HGV_protein|mol2

> <Gold.Goldscore.Fitness>
58.6078

> <Gold.Goldscore.Internal.Vdw>
-5.6486

> <Gold.Goldscore.Internal.Torsion>
-5.8753

> <Gold.Goldscore.External.Vdw>
41.2549

> <Gold.Goldscore.Internal.HBond>
0.0000

> <Gold.Goldscore.External.HBond>
2.8201

> <Gold.Goldscore.Internal.Correction>
-10.5862

> <Gold.Goldscore.Hbonds>
donor molecule, donor type, donor heavy atom, donor atom, acceptor molecule, acceptor atom, score
      P1  H  1247  3847       L1    18  0.09
      L1  H    15    29       P1  1931  1.00
      L1  H    16    30       P1  1931  0.32

> <Gold.Goldscore.Internal.Vdw.Weighted>
-5.6486

> <Gold.Goldscore.Internal.Torsion.Weighted>
-5.8753

> <Gold.Goldscore.External.Vdw.Weighted>
56.7254

> <Gold.Goldscore.Internal.HBond.Weighted>
0.0000

> <Gold.Goldscore.External.HBond.Weighted>
2.8201

> <Gold.Goldscore.Internal.Correction.Weighted>
-10.5862

> <Gold.Protein.RotatedTorsions>
[ 3781 1176 1175 1172 ] final  -81.57 input   60.00 | X-H torsion
[ 3847 1247 1246 1244 ] final  -92.88 input   60.00 | X-H torsion
[ 4507 1931 1930 1928 ] final  167.26 input   60.00 | X-H torsion
[ 3677 1070 1069 1066 ] final  -69.53 input   60.00 | X-H torsion
[ 3525  925  924  922 ] final   50.47 input   59.99 | X-H torsion
[ 4531 1957 1955 1953 ] final  127.10 input   60.00 | X-H torsion

> <Gold.Protein.ActiveResidues>
 PHE267  PRO268  MET310  ASP335  TRP336  MET339  TYR343  THR360  PRO361  ILE363 
 PRO371  SER374  ILE375  ASN378  PHE381  TYR383  GLN384  PHE387  LEU408  LEU417 
 MET419  LEU428  TYR466  MET469  ASN472  ASP496  VAL498  LEU499  MET503  HIS524 
 TRP525 

> <Gold.Protein.RotatedAtoms>
   -2.9477  -29.7931  -30.8684 H   0  0  0  0  0  0  0  0  0  0  0  0  # atno 3525 bound_to 925 
  -12.1875  -23.8441  -31.2457 H   0  0  0  0  0  0  0  0  0  0  0  0  # atno 3677 bound_to 1070
   -9.9354  -36.4943  -34.1128 H   0  0  0  0  0  0  0  0  0  0  0  0  # atno 3781 bound_to 1176
  -15.8705  -27.4384  -37.4813 H   0  0  0  0  0  0  0  0  0  0  0  0  # atno 3847 bound_to 1247
  -12.7426  -23.7929  -40.0312 H   0  0  0  0  0  0  0  0  0  0  0  0  # atno 4507 bound_to 1931
   -2.2661  -34.0636  -36.8284 H   0  0  0  0  0  0  0  0  0  0  0  0  # atno 4531 bound_to 1957
   -9.4011  -36.7052  -32.5903 LP  0  0  0  0  0  0  0  0  0  0  0  0  # atno 5205 bound_to 1176
  -10.7749  -37.4363  -33.0852 LP  0  0  0  0  0  0  0  0  0  0  0  0  # atno 5206 bound_to 1176
  -14.3607  -27.8734  -37.9048 LP  0  0  0  0  0  0  0  0  0  0  0  0  # atno 5215 bound_to 1247
  -15.3283  -28.9298  -37.1209 LP  0  0  0  0  0  0  0  0  0  0  0  0  # atno 5216 bound_to 1247
  -12.7522  -24.8409  -38.7864 LP  0  0  0  0  0  0  0  0  0  0  0  0  # atno 5217 bound_to 1931
  -13.7023  -25.1058  -40.0878 LP  0  0  0  0  0  0  0  0  0  0  0  0  # atno 5218 bound_to 1931
  -11.1106  -22.6342  -31.0890 LP  0  0  0  0  0  0  0  0  0  0  0  0  # atno 5224 bound_to 1070
  -12.5544  -22.5493  -30.3308 LP  0  0  0  0  0  0  0  0  0  0  0  0  # atno 5225 bound_to 1070

$$$$
IA_23|SeH_inactivess_minimized|sdf|111|dock4
  -GOLD-   4172121 03D 1   1.00000     0.00000

 67 70  0  0  0  0  0  0  0  0  1 V2000
  -18.9419  -24.8455  -36.7734 C   0  0  0  0  0  0  0  0  0  0  0  0
  -20.2254  -23.2385  -37.3220 C   0  0  0  0  0  0  0  0  0  0  0  0
  -18.4634  -24.3879  -37.9785 C   0  0  0  0  0  0  0  0  0  0  0  0
  -14.4832  -25.7209  -37.0884 C   0  0  0  0  0  0  0  0  0  0  0  0
  -16.0911  -22.7050  -38.2764 C   0  0  0  0  0  0  0  0  0  0  0  0
   -8.1273  -29.1858  -34.2889 C   0  0  0  0  0  0  0  0  0  0  0  0
   -3.9420  -32.0544  -32.7022 C   0  0  0  0  0  0  0  0  0  0  0  0
   -4.4356  -32.8812  -35.0178 C   0  0  0  0  0  0  0  0  0  0  0  0
   -6.0427  -33.3490  -33.1504 C   0  0  0  0  0  0  0  0  0  0  0  0
   -4.5569  -30.4288  -34.5096 C   0  0  0  0  0  0  0  0  0  0  0  0
   -6.1657  -30.8972  -32.6402 C   0  0  0  0  0  0  0  0  0  0  0  0
   -6.6605  -31.7256  -34.9592 C   0  0  0  0  0  0  0  0  0  0  0  0
   -3.8097  -31.7377  -34.2014 C   0  0  0  0  0  0  0  0  0  0  0  0
   -5.4249  -32.2080  -32.3243 C   0  0  0  0  0  0  0  0  0  0  0  0
   -5.9213  -33.0394  -34.6522 C   0  0  0  0  0  0  0  0  0  0  0  0
   -6.0519  -30.5637  -34.1444 C   0  0  0  0  0  0  0  0  0  0  0  0
  -17.3040  -24.8193  -38.8441 C   0  0  0  0  0  0  0  0  0  0  0  0
  -14.1982  -26.1470  -35.6580 C   0  0  0  0  0  0  0  0  0  0  0  0
  -12.8371  -26.8176  -35.4742 C   0  0  0  0  0  0  0  0  0  0  0  0
  -11.6352  -25.8662  -35.5329 C   0  0  0  0  0  0  0  0  0  0  0  0
  -10.2993  -26.5837  -35.7535 C   0  0  0  0  0  0  0  0  0  0  0  0
   -9.9158  -27.4764  -34.5766 C   0  0  0  0  0  0  0  0  0  0  0  0
  -15.9659  -24.2167  -38.3966 C   0  0  2  0  0  0  0  0  0  0  0  0
  -20.0387  -24.1258  -36.3702 N   0  0  0  0  0  0  0  0  0  0  0  0
  -19.2958  -23.3585  -38.3172 N   0  0  0  0  0  0  0  0  0  0  0  0
  -15.5211  -24.8028  -37.1537 N   0  0  0  0  0  0  0  0  0  0  0  0
   -6.7512  -29.3308  -34.4331 N   0  0  0  0  0  0  0  0  0  0  0  0
   -8.5367  -27.9002  -34.6341 N   0  0  0  0  0  0  0  0  0  0  0  0
  -13.8414  -26.1294  -38.0526 O   0  0  0  0  0  0  0  0  0  0  0  0
  -16.8615  -22.0422  -38.9632 O   0  0  0  0  0  0  0  0  0  0  0  0
   -8.8860  -30.0755  -33.9063 O   0  0  0  0  0  0  0  0  0  0  0  0
  -15.2891  -22.1402  -37.3420 O   0  0  0  0  0  0  0  0  0  0  0  0
  -18.5539  -25.6563  -36.1734 H   0  0  0  0  0  0  0  0  0  0  0  0
  -21.0046  -22.4904  -37.3511 H   0  0  0  0  0  0  0  0  0  0  0  0
   -3.3974  -32.9766  -32.4653 H   0  0  0  0  0  0  0  0  0  0  0  0
   -3.4851  -31.2533  -32.1082 H   0  0  0  0  0  0  0  0  0  0  0  0
   -4.3339  -32.6751  -36.0904 H   0  0  0  0  0  0  0  0  0  0  0  0
   -3.8998  -33.8181  -34.8211 H   0  0  0  0  0  0  0  0  0  0  0  0
   -5.5357  -34.2944  -32.9213 H   0  0  0  0  0  0  0  0  0  0  0  0
   -7.0974  -33.4795  -32.8787 H   0  0  0  0  0  0  0  0  0  0  0  0
   -4.1018  -29.6005  -33.9507 H   0  0  0  0  0  0  0  0  0  0  0  0
   -4.4472  -30.1786  -35.5731 H   0  0  0  0  0  0  0  0  0  0  0  0
   -7.2208  -30.9864  -32.3500 H   0  0  0  0  0  0  0  0  0  0  0  0
   -5.7495  -30.0793  -32.0374 H   0  0  0  0  0  0  0  0  0  0  0  0
   -6.6022  -31.5074  -36.0335 H   0  0  0  0  0  0  0  0  0  0  0  0
   -7.7277  -31.8367  -34.7256 H   0  0  0  0  0  0  0  0  0  0  0  0
   -2.7516  -31.6306  -34.4653 H   0  0  0  0  0  0  0  0  0  0  0  0
   -5.5130  -32.4348  -31.2561 H   0  0  0  0  0  0  0  0  0  0  0  0
   -6.3609  -33.8563  -35.2352 H   0  0  0  0  0  0  0  0  0  0  0  0
  -17.5269  -24.5307  -39.8799 H   0  0  0  0  0  0  0  0  0  0  0  0
  -17.2394  -25.9159  -38.8573 H   0  0  0  0  0  0  0  0  0  0  0  0
  -14.2255  -25.2362  -35.0468 H   0  0  0  0  0  0  0  0  0  0  0  0
  -15.0037  -26.7954  -35.2983 H   0  0  0  0  0  0  0  0  0  0  0  0
  -12.8164  -27.3436  -34.5117 H   0  0  0  0  0  0  0  0  0  0  0  0
  -12.7181  -27.5850  -36.2491 H   0  0  0  0  0  0  0  0  0  0  0  0
  -11.5925  -25.3190  -34.5828 H   0  0  0  0  0  0  0  0  0  0  0  0
  -11.7902  -25.1162  -36.3163 H   0  0  0  0  0  0  0  0  0  0  0  0
  -10.3683  -27.2050  -36.6544 H   0  0  0  0  0  0  0  0  0  0  0  0
   -9.5025  -25.8506  -35.9226 H   0  0  0  0  0  0  0  0  0  0  0  0
  -10.0703  -26.9643  -33.6217 H   0  0  0  0  0  0  0  0  0  0  0  0
  -10.5294  -28.3830  -34.5796 H   0  0  0  0  0  0  0  0  0  0  0  0
  -15.1741  -24.4142  -39.1283 H   0  0  0  0  0  0  0  0  0  0  0  0
  -19.2377  -22.7880  -39.1506 H   0  0  0  0  0  0  0  0  0  0  0  0
  -16.0197  -24.5506  -36.3053 H   0  0  0  0  0  0  0  0  0  0  0  0
   -6.2127  -28.5342  -34.7560 H   0  0  0  0  0  0  0  0  0  0  0  0
   -7.8329  -27.2168  -34.8953 H   0  0  0  0  0  0  0  0  0  0  0  0
  -15.3766  -21.1675  -37.2578 H   0  0  0  0  0  0  0  0  0  0  0  0
  1  3  2  0  0  0  0
  1 24  1  0  0  0  0
  2 24  2  0  0  0  0
  2 25  1  0  0  0  0
  3 17  1  0  0  0  0
  3 25  1  0  0  0  0
  4 18  1  0  0  0  0
  4 26  1  0  0  0  0
  4 29  2  0  0  0  0
  5 23  1  0  0  0  0
  5 30  2  0  0  0  0
  5 32  1  0  0  0  0
  6 27  1  0  0  0  0
  6 28  1  0  0  0  0
  6 31  2  0  0  0  0
  7 13  1  0  0  0  0
  7 14  1  0  0  0  0
  8 13  1  0  0  0  0
  8 15  1  0  0  0  0
  9 14  1  0  0  0  0
  9 15  1  0  0  0  0
 10 13  1  0  0  0  0
 10 16  1  0  0  0  0
 11 14  1  0  0  0  0
 11 16  1  0  0  0  0
 12 15  1  0  0  0  0
 12 16  1  0  0  0  0
 16 27  1  0  0  0  0
 17 23  1  0  0  0  0
 18 19  1  0  0  0  0
 19 20  1  0  0  0  0
 20 21  1  0  0  0  0
 21 22  1  0  0  0  0
 22 28  1  0  0  0  0
 23 26  1  0  0  0  0
  1 33  1  0  0  0  0
  2 34  1  0  0  0  0
  7 35  1  0  0  0  0
  7 36  1  0  0  0  0
  8 37  1  0  0  0  0
  8 38  1  0  0  0  0
  9 39  1  0  0  0  0
  9 40  1  0  0  0  0
 10 41  1  0  0  0  0
 10 42  1  0  0  0  0
 11 43  1  0  0  0  0
 11 44  1  0  0  0  0
 12 45  1  0  0  0  0
 12 46  1  0  0  0  0
 13 47  1  0  0  0  0
 14 48  1  0  0  0  0
 15 49  1  0  0  0  0
 17 50  1  0  0  0  0
 17 51  1  0  0  0  0
 18 52  1  0  0  0  0
 18 53  1  0  0  0  0
 19 54  1  0  0  0  0
 19 55  1  0  0  0  0
 20 56  1  0  0  0  0
 20 57  1  0  0  0  0
 21 58  1  0  0  0  0
 21 59  1  0  0  0  0
 22 60  1  0  0  0  0
 22 61  1  0  0  0  0
 23 62  1  0  0  0  0
 25 63  1  0  0  0  0
 26 64  1  0  0  0  0
 27 65  1  0  0  0  0
 28 66  1  0  0  0  0
 32 67  1  0  0  0  0
M  END
> <Name>
IA_23

> <SourceTag>
IA_22

> <Gold.Version>
5.2

> <Gold.Id.Protein>
6HGV|6HGV_protein|mol2

> <Gold.Goldscore.Fitness>
76.8157

> <Gold.Goldscore.Internal.Vdw>
-2.6262

> <Gold.Goldscore.Internal.Torsion>
-5.8505

> <Gold.Goldscore.External.Vdw>
58.0670

> <Gold.Goldscore.Internal.HBond>
0.0000

> <Gold.Goldscore.External.HBond>
0.0000

> <Gold.Goldscore.Internal.Correction>
-5.4502

> <Gold.Goldscore.Internal.Vdw.Weighted>
-2.6262

> <Gold.Goldscore.Internal.Torsion.Weighted>
-5.8505

> <Gold.Goldscore.External.Vdw.Weighted>
79.8422

> <Gold.Goldscore.Internal.HBond.Weighted>
0.0000

> <Gold.Goldscore.External.HBond.Weighted>
0.0000

> <Gold.Goldscore.Internal.Correction.Weighted>
-5.4502

> <Gold.Protein.RotatedTorsions>
[ 3781 1176 1175 1172 ] final  -19.34 input   60.00 | X-H torsion
[ 3847 1247 1246 1244 ] final  -17.19 input   60.00 | X-H torsion
[ 4507 1931 1930 1928 ] final -141.82 input   60.00 | X-H torsion
[ 3677 1070 1069 1066 ] final -121.87 input   60.00 | X-H torsion
[ 3525  925  924  922 ] final  -42.00 input   59.99 | X-H torsion
[ 4531 1957 1955 1953 ] final  -62.27 input   60.00 | X-H torsion

> <Gold.Protein.ActiveResidues>
 PHE267  PRO268  MET310  ASP335  TRP336  MET339  TYR343  THR360  PRO361  ILE363 
 PRO371  SER374  ILE375  ASN378  PHE381  TYR383  GLN384  PHE387  LEU408  LEU417 
 MET419  LEU428  TYR466  MET469  ASN472  ASP496  VAL498  LEU499  MET503  HIS524 
 TRP525 

> <Gold.Protein.RotatedAtoms>
   -3.7696  -29.5300  -29.8274 H   0  0  0  0  0  0  0  0  0  0  0  0  # atno 3525 bound_to 925 
  -11.4400  -23.5589  -31.4507 H   0  0  0  0  0  0  0  0  0  0  0  0  # atno 3677 bound_to 1070
  -10.6861  -37.0707  -33.9112 H   0  0  0  0  0  0  0  0  0  0  0  0  # atno 3781 bound_to 1176
  -15.8947  -28.5079  -37.0627 H   0  0  0  0  0  0  0  0  0  0  0  0  # atno 3847 bound_to 1247
  -13.2841  -24.2013  -40.4646 H   0  0  0  0  0  0  0  0  0  0  0  0  # atno 4507 bound_to 1931
   -1.9441  -32.2255  -36.8578 H   0  0  0  0  0  0  0  0  0  0  0  0  # atno 4531 bound_to 1957
   -9.3124  -36.3134  -33.4781 LP  0  0  0  0  0  0  0  0  0  0  0  0  # atno 5205 bound_to 1176
  -10.1077  -37.2476  -32.4005 LP  0  0  0  0  0  0  0  0  0  0  0  0  # atno 5206 bound_to 1176
  -15.2890  -27.1907  -37.8016 LP  0  0  0  0  0  0  0  0  0  0  0  0  # atno 5215 bound_to 1247
  -14.3757  -28.5355  -37.6456 LP  0  0  0  0  0  0  0  0  0  0  0  0  # atno 5216 bound_to 1247
  -12.4376  -24.1521  -39.0757 LP  0  0  0  0  0  0  0  0  0  0  0  0  # atno 5217 bound_to 1931
  -13.4715  -25.3833  -39.3620 LP  0  0  0  0  0  0  0  0  0  0  0  0  # atno 5218 bound_to 1931
  -11.6043  -22.1867  -30.5914 LP  0  0  0  0  0  0  0  0  0  0  0  0  # atno 5224 bound_to 1070
  -12.8133  -23.2840  -30.6220 LP  0  0  0  0  0  0  0  0  0  0  0  0  # atno 5225 bound_to 1070

$$$$
IA_208.cdx|SeH_inactivess_minimized|sdf|105|dock2
  -GOLD-   4172120513D 1   1.00000     0.00000

 30 31  0  0  0  0  0  0  0  0  1 V2000
   -8.9283  -27.5386  -34.9212 C   0  0  0  0  0  0  0  0  0  0  0  0
  -17.8732  -25.2713  -35.3556 C   0  0  0  0  0  0  0  0  0  0  0  0
  -17.4448  -24.7667  -37.6791 C   0  0  0  0  0  0  0  0  0  0  0  0
   -9.1470  -26.2423  -34.4550 C   0  0  0  0  0  0  0  0  0  0  0  0
   -9.7258  -28.0567  -35.9415 C   0  0  0  0  0  0  0  0  0  0  0  0
  -19.2123  -24.9202  -35.5262 C   0  0  0  0  0  0  0  0  0  0  0  0
  -18.7840  -24.4158  -37.8498 C   0  0  0  0  0  0  0  0  0  0  0  0
  -10.9609  -25.9822  -36.0295 C   0  0  0  0  0  0  0  0  0  0  0  0
  -16.9894  -25.1945  -36.4321 C   0  0  0  0  0  0  0  0  0  0  0  0
  -10.1633  -25.4641  -35.0092 C   0  0  0  0  0  0  0  0  0  0  0  0
  -10.7421  -27.2784  -36.4958 C   0  0  0  0  0  0  0  0  0  0  0  0
  -19.6677  -24.4926  -36.7734 C   0  0  0  0  0  0  0  0  0  0  0  0
  -12.0206  -25.1705  -36.6078 C   0  0  0  0  0  0  0  0  0  0  0  0
  -14.5124  -24.9944  -36.8873 C   0  0  0  0  0  0  0  0  0  0  0  0
  -15.6316  -25.5509  -36.2591 N   0  0  0  0  0  0  0  0  0  0  0  0
  -13.3389  -25.6337  -36.4373 N   0  0  0  0  0  0  0  0  0  0  0  0
  -11.7501  -24.1090  -37.1955 O   0  0  0  0  0  0  0  0  0  0  0  0
  -14.5116  -24.0859  -37.7140 O   0  0  0  0  0  0  0  0  0  0  0  0
  -10.3650  -24.2194  -34.5537 F   0  0  0  0  0  0  0  0  0  0  0  0
  -11.5028  -27.7861  -37.4760 F   0  0  0  0  0  0  0  0  0  0  0  0
  -21.3202  -24.0594  -36.9838 Cl  0  0  0  0  0  0  0  0  0  0  0  0
   -8.1367  -28.1444  -34.4898 H   0  0  0  0  0  0  0  0  0  0  0  0
  -17.5289  -25.6030  -34.3795 H   0  0  0  0  0  0  0  0  0  0  0  0
  -16.7647  -24.7032  -38.5247 H   0  0  0  0  0  0  0  0  0  0  0  0
   -8.5262  -25.8389  -33.6604 H   0  0  0  0  0  0  0  0  0  0  0  0
   -9.5559  -29.0660  -36.3046 H   0  0  0  0  0  0  0  0  0  0  0  0
  -19.8899  -24.9850  -34.6789 H   0  0  0  0  0  0  0  0  0  0  0  0
  -19.1251  -24.0840  -38.8270 H   0  0  0  0  0  0  0  0  0  0  0  0
  -15.4543  -26.3024  -35.5974 H   0  0  0  0  0  0  0  0  0  0  0  0
  -13.4562  -26.5130  -35.9429 H   0  0  0  0  0  0  0  0  0  0  0  0
  1  4  2  0  0  0  0
  1  5  1  0  0  0  0
  2  6  1  0  0  0  0
  2  9  2  0  0  0  0
  3  7  2  0  0  0  0
  3  9  1  0  0  0  0
  4 10  1  0  0  0  0
  5 11  2  0  0  0  0
  6 12  2  0  0  0  0
  7 12  1  0  0  0  0
  8 10  2  0  0  0  0
  8 11  1  0  0  0  0
  8 13  1  0  0  0  0
  9 15  1  0  0  0  0
 10 19  1  0  0  0  0
 11 20  1  0  0  0  0
 12 21  1  0  0  0  0
 13 16  1  0  0  0  0
 13 17  2  0  0  0  0
 14 15  1  0  0  0  0
 14 16  1  0  0  0  0
 14 18  2  0  0  0  0
  1 22  1  0  0  0  0
  2 23  1  0  0  0  0
  3 24  1  0  0  0  0
  4 25  1  0  0  0  0
  5 26  1  0  0  0  0
  6 27  1  0  0  0  0
  7 28  1  0  0  0  0
 15 29  1  0  0  0  0
 16 30  1  0  0  0  0
M  END
> <Name>
IA_208.cdx

> <SourceTag>
IA_208

> <Gold.Version>
5.2

> <Gold.Id.Protein>
6HGV|6HGV_protein|mol2

> <Gold.Goldscore.Fitness>
57.5065

> <Gold.Goldscore.Internal.Vdw>
-3.4080

> <Gold.Goldscore.Internal.Torsion>
-8.7800

> <Gold.Goldscore.External.Vdw>
42.9081

> <Gold.Goldscore.Internal.HBond>
0.0000

> <Gold.Goldscore.External.HBond>
0.2149

> <Gold.Goldscore.Internal.Correction>
-10.4809

> <Gold.Goldscore.Hbonds>
donor molecule, donor type, donor heavy atom, donor atom, acceptor molecule, acceptor atom, score
      P1  H  1931  4507       L1    17  0.11

> <Gold.Goldscore.Internal.Vdw.Weighted>
-3.4080

> <Gold.Goldscore.Internal.Torsion.Weighted>
-8.7800

> <Gold.Goldscore.External.Vdw.Weighted>
58.9986

> <Gold.Goldscore.Internal.HBond.Weighted>
0.0000

> <Gold.Goldscore.External.HBond.Weighted>
0.2149

> <Gold.Goldscore.Internal.Correction.Weighted>
-10.4809

> <Gold.Protein.RotatedTorsions>
[ 3781 1176 1175 1172 ] final  -46.03 input   60.00 | X-H torsion
[ 3847 1247 1246 1244 ] final  133.20 input   60.00 | X-H torsion
[ 4507 1931 1930 1928 ] final   84.88 input   60.00 | X-H torsion
[ 3677 1070 1069 1066 ] final -119.63 input   60.00 | X-H torsion
[ 3525  925  924  922 ] final  166.33 input   59.99 | X-H torsion
[ 4531 1957 1955 1953 ] final   46.36 input   60.00 | X-H torsion

> <Gold.Protein.ActiveResidues>
 PHE267  PRO268  MET310  ASP335  TRP336  MET339  TYR343  THR360  PRO361  ILE363 
 PRO371  SER374  ILE375  ASN378  PHE381  TYR383  GLN384  PHE387  LEU408  LEU417 
 MET419  LEU428  TYR466  MET469  ASN472  ASP496  VAL498  LEU499  MET503  HIS524 
 TRP525 

> <Gold.Protein.RotatedAtoms>
   -2.1268  -30.2674  -29.5960 H   0  0  0  0  0  0  0  0  0  0  0  0  # atno 3525 bound_to 925 
  -11.4675  -23.5830  -31.4509 H   0  0  0  0  0  0  0  0  0  0  0  0  # atno 3677 bound_to 1070
  -10.4120  -36.8097  -34.1199 H   0  0  0  0  0  0  0  0  0  0  0  0  # atno 3781 bound_to 1176
  -14.3161  -28.0882  -37.8429 H   0  0  0  0  0  0  0  0  0  0  0  0  # atno 3847 bound_to 1247
  -12.4813  -24.3241  -38.9495 H   0  0  0  0  0  0  0  0  0  0  0  0  # atno 4507 bound_to 1931
   -3.0969  -33.1968  -36.6555 H   0  0  0  0  0  0  0  0  0  0  0  0  # atno 4531 bound_to 1957
   -9.2381  -36.4195  -33.0626 LP  0  0  0  0  0  0  0  0  0  0  0  0  # atno 5205 bound_to 1176
  -10.4580  -37.4044  -32.6059 LP  0  0  0  0  0  0  0  0  0  0  0  0  # atno 5206 bound_to 1176
  -15.5346  -28.8436  -37.0729 LP  0  0  0  0  0  0  0  0  0  0  0  0  # atno 5215 bound_to 1247
  -15.7199  -27.3053  -37.5886 LP  0  0  0  0  0  0  0  0  0  0  0  0  # atno 5216 bound_to 1247
  -13.5735  -25.3677  -39.5545 LP  0  0  0  0  0  0  0  0  0  0  0  0  # atno 5217 bound_to 1931
  -13.1442  -24.0441  -40.4091 LP  0  0  0  0  0  0  0  0  0  0  0  0  # atno 5218 bound_to 1931
  -11.5736  -22.1936  -30.6105 LP  0  0  0  0  0  0  0  0  0  0  0  0  # atno 5224 bound_to 1070
  -12.8164  -23.2528  -30.6027 LP  0  0  0  0  0  0  0  0  0  0  0  0  # atno 5225 bound_to 1070

$$$$
IA_142.cdx|SeH_inactivess_minimized|sdf|45|dock8
  -GOLD-   4172119363D 1   1.00000     0.00000

 27 27  0  0  0  0  0  0  0  0  1 V2000
   -9.0045  -26.0293  -34.2329 C   0  0  0  0  0  0  0  0  0  0  0  0
  -10.0431  -25.1901  -33.8298 C   0  0  0  0  0  0  0  0  0  0  0  0
   -9.2553  -27.0684  -35.1289 C   0  0  0  0  0  0  0  0  0  0  0  0
  -11.3326  -25.3901  -34.3225 C   0  0  0  0  0  0  0  0  0  0  0  0
  -10.5447  -27.2684  -35.6217 C   0  0  0  0  0  0  0  0  0  0  0  0
  -11.5835  -26.4294  -35.2185 C   0  0  0  0  0  0  0  0  0  0  0  0
  -14.8764  -24.5060  -38.1288 C   0  0  0  0  0  0  0  0  0  0  0  0
  -16.5010  -22.7131  -38.7396 C   0  0  0  0  0  0  0  0  0  0  0  0
  -12.9783  -26.6464  -35.7518 C   0  0  0  0  0  0  0  0  0  0  0  0
  -13.1858  -26.0444  -37.1394 C   0  0  0  0  0  0  0  0  0  0  0  0
  -15.5269  -23.3064  -37.8528 N   0  0  0  0  0  0  0  0  0  0  0  0
  -13.9915  -24.8466  -37.1088 N   0  0  0  0  0  0  0  0  0  0  0  0
  -15.0579  -25.1792  -39.1425 O   0  0  0  0  0  0  0  0  0  0  0  0
   -8.0002  -25.8725  -33.8502 H   0  0  0  0  0  0  0  0  0  0  0  0
   -9.8478  -24.3801  -33.1329 H   0  0  0  0  0  0  0  0  0  0  0  0
   -8.4466  -27.7213  -35.4439 H   0  0  0  0  0  0  0  0  0  0  0  0
  -12.1358  -24.7314  -34.0027 H   0  0  0  0  0  0  0  0  0  0  0  0
  -10.7309  -28.0807  -36.3194 H   0  0  0  0  0  0  0  0  0  0  0  0
  -16.6230  -21.6519  -38.5077 H   0  0  0  0  0  0  0  0  0  0  0  0
  -17.4677  -23.2114  -38.6268 H   0  0  0  0  0  0  0  0  0  0  0  0
  -16.1754  -22.8111  -39.7787 H   0  0  0  0  0  0  0  0  0  0  0  0
  -13.6928  -26.1965  -35.0508 H   0  0  0  0  0  0  0  0  0  0  0  0
  -13.2066  -27.7198  -35.7678 H   0  0  0  0  0  0  0  0  0  0  0  0
  -12.2203  -25.7644  -37.5726 H   0  0  0  0  0  0  0  0  0  0  0  0
  -13.6722  -26.7524  -37.8184 H   0  0  0  0  0  0  0  0  0  0  0  0
  -15.3062  -22.8253  -36.9865 H   0  0  0  0  0  0  0  0  0  0  0  0
  -13.8729  -24.2059  -36.3304 H   0  0  0  0  0  0  0  0  0  0  0  0
  1  2  2  0  0  0  0
  1  3  1  0  0  0  0
  2  4  1  0  0  0  0
  3  5  2  0  0  0  0
  4  6  2  0  0  0  0
  5  6  1  0  0  0  0
  6  9  1  0  0  0  0
  7 11  1  0  0  0  0
  7 12  1  0  0  0  0
  7 13  2  0  0  0  0
  8 11  1  0  0  0  0
  9 10  1  0  0  0  0
 10 12  1  0  0  0  0
  1 14  1  0  0  0  0
  2 15  1  0  0  0  0
  3 16  1  0  0  0  0
  4 17  1  0  0  0  0
  5 18  1  0  0  0  0
  8 19  1  0  0  0  0
  8 20  1  0  0  0  0
  8 21  1  0  0  0  0
  9 22  1  0  0  0  0
  9 23  1  0  0  0  0
 10 24  1  0  0  0  0
 10 25  1  0  0  0  0
 11 26  1  0  0  0  0
 12 27  1  0  0  0  0
M  END
> <Name>
IA_142.cdx

> <SourceTag>
IA_142

> <Gold.Version>
5.2

> <Gold.Id.Protein>
6HGV|6HGV_protein|mol2

> <Gold.Goldscore.Fitness>
45.8925

> <Gold.Goldscore.Internal.Vdw>
-1.8006

> <Gold.Goldscore.Internal.Torsion>
-4.0034

> <Gold.Goldscore.External.Vdw>
32.4352

> <Gold.Goldscore.Internal.HBond>
0.0000

> <Gold.Goldscore.External.HBond>
6.6707

> <Gold.Goldscore.Internal.Correction>
-0.4272

> <Gold.Goldscore.Hbonds>
donor molecule, donor type, donor heavy atom, donor atom, acceptor molecule, acceptor atom, score
      L1  H    11    26       P1   853  0.16
      L1  H    12    27       P1   853  0.96

> <Gold.Goldscore.Internal.Vdw.Weighted>
-1.8006

> <Gold.Goldscore.Internal.Torsion.Weighted>
-4.0034

> <Gold.Goldscore.External.Vdw.Weighted>
44.5984

> <Gold.Goldscore.Internal.HBond.Weighted>
0.0000

> <Gold.Goldscore.External.HBond.Weighted>
6.6707

> <Gold.Goldscore.Internal.Correction.Weighted>
-0.4272

> <Gold.Protein.RotatedTorsions>
[ 3781 1176 1175 1172 ] final -124.92 input   60.00 | X-H torsion
[ 3847 1247 1246 1244 ] final  -81.85 input   60.00 | X-H torsion
[ 4507 1931 1930 1928 ] final  174.40 input   60.00 | X-H torsion
[ 3677 1070 1069 1066 ] final  -96.95 input   60.00 | X-H torsion
[ 3525  925  924  922 ] final   73.42 input   59.99 | X-H torsion
[ 4531 1957 1955 1953 ] final  168.61 input   60.00 | X-H torsion

> <Gold.Protein.ActiveResidues>
 PHE267  PRO268  MET310  ASP335  TRP336  MET339  TYR343  THR360  PRO361  ILE363 
 PRO371  SER374  ILE375  ASN378  PHE381  TYR383  GLN384  PHE387  LEU408  LEU417 
 MET419  LEU428  TYR466  MET469  ASN472  ASP496  VAL498  LEU499  MET503  HIS524 
 TRP525 

> <Gold.Protein.RotatedAtoms>
   -2.6104  -29.9443  -30.8224 H   0  0  0  0  0  0  0  0  0  0  0  0  # atno 3525 bound_to 925 
  -11.7797  -23.7730  -31.4057 H   0  0  0  0  0  0  0  0  0  0  0  0  # atno 3677 bound_to 1070
   -9.4223  -36.3115  -33.6869 H   0  0  0  0  0  0  0  0  0  0  0  0  # atno 3781 bound_to 1176
  -15.9640  -27.5661  -37.3958 H   0  0  0  0  0  0  0  0  0  0  0  0  # atno 3847 bound_to 1247
  -12.8129  -23.8179  -40.1210 H   0  0  0  0  0  0  0  0  0  0  0  0  # atno 4507 bound_to 1931
   -1.6374  -33.8861  -36.9448 H   0  0  0  0  0  0  0  0  0  0  0  0  # atno 4531 bound_to 1957
   -9.9071  -37.1271  -32.3649 LP  0  0  0  0  0  0  0  0  0  0  0  0  # atno 5205 bound_to 1176
  -10.7857  -37.1984  -33.7395 LP  0  0  0  0  0  0  0  0  0  0  0  0  # atno 5206 bound_to 1176
  -14.4363  -27.7119  -37.9369 LP  0  0  0  0  0  0  0  0  0  0  0  0  # atno 5215 bound_to 1247
  -15.1586  -28.9627  -37.1749 LP  0  0  0  0  0  0  0  0  0  0  0  0  # atno 5216 bound_to 1247
  -12.6856  -24.7440  -38.7890 LP  0  0  0  0  0  0  0  0  0  0  0  0  # atno 5217 bound_to 1931
  -13.6981  -25.1775  -39.9947 LP  0  0  0  0  0  0  0  0  0  0  0  0  # atno 5218 bound_to 1931
  -11.3019  -22.3310  -30.8223 LP  0  0  0  0  0  0  0  0  0  0  0  0  # atno 5224 bound_to 1070
  -12.7737  -22.9241  -30.4365 LP  0  0  0  0  0  0  0  0  0  0  0  0  # atno 5225 bound_to 1070

$$$$
IA_117.cdx|SeH_inactivess_minimized|sdf|19|dock9
  -GOLD-   4172118563D 1   1.00000     0.00000

 38 39  0  0  0  0  0  0  0  0  1 V2000
  -17.8761  -25.4975  -36.6493 C   0  0  0  0  0  0  0  0  0  0  0  0
  -16.7401  -23.6277  -37.6741 C   0  0  0  0  0  0  0  0  0  0  0  0
  -19.0889  -25.0460  -37.1698 C   0  0  0  0  0  0  0  0  0  0  0  0
  -17.9529  -23.1762  -38.1946 C   0  0  0  0  0  0  0  0  0  0  0  0
  -16.7018  -24.7884  -36.9014 C   0  0  0  0  0  0  0  0  0  0  0  0
  -19.1273  -23.8853  -37.9425 C   0  0  0  0  0  0  0  0  0  0  0  0
  -14.1883  -25.0400  -36.8866 C   0  0  0  0  0  0  0  0  0  0  0  0
  -10.4760  -26.8007  -33.9581 C   0  0  0  0  0  0  0  0  0  0  0  0
  -11.0550  -25.3889  -33.9170 C   0  0  0  0  0  0  0  0  0  0  0  0
  -11.1957  -27.6820  -34.9756 C   0  0  0  0  0  0  0  0  0  0  0  0
  -11.0782  -24.7495  -35.3060 C   0  0  0  0  0  0  0  0  0  0  0  0
  -11.2181  -27.0373  -36.3622 C   0  0  0  0  0  0  0  0  0  0  0  0
  -11.7969  -25.6161  -36.3486 C   0  0  0  0  0  0  0  0  0  0  0  0
  -15.4720  -25.2462  -36.3735 N   0  0  0  0  0  0  0  0  0  0  0  0
  -13.2342  -25.6567  -36.0702 N   0  0  0  0  0  0  0  0  0  0  0  0
  -13.8977  -24.4139  -37.9032 O   0  0  0  0  0  0  0  0  0  0  0  0
  -21.2384  -22.4086  -37.6259 O   0  0  0  0  0  0  0  0  0  0  0  0
  -20.3866  -22.8871  -39.9582 O   0  0  0  0  0  0  0  0  0  0  0  0
  -21.6056  -24.6419  -38.6542 O   0  0  0  0  0  0  0  0  0  0  0  0
  -20.6453  -23.3200  -38.5937 S   0  0  0  0  0  0  0  0  0  0  0  0
  -17.8581  -26.4032  -36.0483 H   0  0  0  0  0  0  0  0  0  0  0  0
  -15.8311  -23.0671  -37.8770 H   0  0  0  0  0  0  0  0  0  0  0  0
  -19.9979  -25.6060  -36.9671 H   0  0  0  0  0  0  0  0  0  0  0  0
  -17.9714  -22.2708  -38.7954 H   0  0  0  0  0  0  0  0  0  0  0  0
   -9.4076  -26.7539  -34.2014 H   0  0  0  0  0  0  0  0  0  0  0  0
  -10.5553  -27.2557  -32.9619 H   0  0  0  0  0  0  0  0  0  0  0  0
  -12.0712  -25.4187  -33.5091 H   0  0  0  0  0  0  0  0  0  0  0  0
  -10.4558  -24.7677  -33.2406 H   0  0  0  0  0  0  0  0  0  0  0  0
  -10.6948  -28.6556  -35.0350 H   0  0  0  0  0  0  0  0  0  0  0  0
  -12.2216  -27.8694  -34.6407 H   0  0  0  0  0  0  0  0  0  0  0  0
  -11.5647  -23.7604  -35.2438 H   0  0  0  0  0  0  0  0  0  0  0  0
  -10.0435  -24.5507  -35.6327 H   0  0  0  0  0  0  0  0  0  0  0  0
  -10.1945  -27.0211  -36.7730 H   0  0  0  0  0  0  0  0  0  0  0  0
  -11.8037  -27.6719  -37.0500 H   0  0  0  0  0  0  0  0  0  0  0  0
  -11.6935  -25.1678  -37.3335 H   0  0  0  0  0  0  0  0  0  0  0  0
  -15.5345  -25.7903  -35.5166 H   0  0  0  0  0  0  0  0  0  0  0  0
  -13.5532  -26.1562  -35.2456 H   0  0  0  0  0  0  0  0  0  0  0  0
  -22.4747  -24.5101  -39.1010 H   0  0  0  0  0  0  0  0  0  0  0  0
  1  3  1  0  0  0  0
  1  5  2  0  0  0  0
  2  4  2  0  0  0  0
  2  5  1  0  0  0  0
  3  6  2  0  0  0  0
  4  6  1  0  0  0  0
  5 14  1  0  0  0  0
  6 20  1  0  0  0  0
  7 14  1  0  0  0  0
  7 15  1  0  0  0  0
  7 16  2  0  0  0  0
  8  9  1  0  0  0  0
  8 10  1  0  0  0  0
  9 11  1  0  0  0  0
 10 12  1  0  0  0  0
 11 13  1  0  0  0  0
 12 13  1  0  0  0  0
 13 15  1  0  0  0  0
 17 20  2  0  0  0  0
 18 20  2  0  0  0  0
 19 20  1  0  0  0  0
  1 21  1  0  0  0  0
  2 22  1  0  0  0  0
  3 23  1  0  0  0  0
  4 24  1  0  0  0  0
  8 25  1  0  0  0  0
  8 26  1  0  0  0  0
  9 27  1  0  0  0  0
  9 28  1  0  0  0  0
 10 29  1  0  0  0  0
 10 30  1  0  0  0  0
 11 31  1  0  0  0  0
 11 32  1  0  0  0  0
 12 33  1  0  0  0  0
 12 34  1  0  0  0  0
 13 35  1  0  0  0  0
 14 36  1  0  0  0  0
 15 37  1  0  0  0  0
 19 38  1  0  0  0  0
M  END
> <Name>
IA_117.cdx

> <SourceTag>
IA_117

> <Gold.Version>
5.2

> <Gold.Id.Protein>
6HGV|6HGV_protein|mol2

> <Gold.Goldscore.Fitness>
57.8283

> <Gold.Goldscore.Internal.Vdw>
-1.0802

> <Gold.Goldscore.Internal.Torsion>
-4.9700

> <Gold.Goldscore.External.Vdw>
42.6050

> <Gold.Goldscore.Internal.HBond>
0.0000

> <Gold.Goldscore.External.HBond>
0.0000

> <Gold.Goldscore.Internal.Correction>
-5.2966

> <Gold.Goldscore.Internal.Vdw.Weighted>
-1.0802

> <Gold.Goldscore.Internal.Torsion.Weighted>
-4.9700

> <Gold.Goldscore.External.Vdw.Weighted>
58.5819

> <Gold.Goldscore.Internal.HBond.Weighted>
0.0000

> <Gold.Goldscore.External.HBond.Weighted>
0.0000

> <Gold.Goldscore.Internal.Correction.Weighted>
-5.2966

> <Gold.Protein.RotatedTorsions>
[ 3781 1176 1175 1172 ] final -107.61 input   60.00 | X-H torsion
[ 3847 1247 1246 1244 ] final  140.59 input   60.00 | X-H torsion
[ 4507 1931 1930 1928 ] final -171.20 input   60.00 | X-H torsion
[ 3677 1070 1069 1066 ] final  -81.15 input   60.00 | X-H torsion
[ 3525  925  924  922 ] final   43.32 input   59.99 | X-H torsion
[ 4531 1957 1955 1953 ] final   56.87 input   60.00 | X-H torsion

> <Gold.Protein.ActiveResidues>
 PHE267  PRO268  MET310  ASP335  TRP336  MET339  TYR343  THR360  PRO361  ILE363 
 PRO371  SER374  ILE375  ASN378  PHE381  TYR383  GLN384  PHE387  LEU408  LEU417 
 MET419  LEU428  TYR466  MET469  ASN472  ASP496  VAL498  LEU499  MET503  HIS524 
 TRP525 

> <Gold.Protein.RotatedAtoms>
   -3.0542  -29.7481  -30.8524 H   0  0  0  0  0  0  0  0  0  0  0  0  # atno 3525 bound_to 925 
  -12.0158  -23.8369  -31.3259 H   0  0  0  0  0  0  0  0  0  0  0  0  # atno 3677 bound_to 1070
   -9.5999  -36.3494  -33.9023 H   0  0  0  0  0  0  0  0  0  0  0  0  # atno 3781 bound_to 1176
  -14.3371  -27.9746  -37.8781 H   0  0  0  0  0  0  0  0  0  0  0  0  # atno 3847 bound_to 1247
  -12.9650  -23.9036  -40.2777 H   0  0  0  0  0  0  0  0  0  0  0  0  # atno 4507 bound_to 1931
   -3.0703  -33.3661  -36.6634 H   0  0  0  0  0  0  0  0  0  0  0  0  # atno 4531 bound_to 1957
   -9.6783  -36.9625  -32.3970 LP  0  0  0  0  0  0  0  0  0  0  0  0  # atno 5205 bound_to 1176
  -10.8356  -37.3249  -33.4906 LP  0  0  0  0  0  0  0  0  0  0  0  0  # atno 5206 bound_to 1176
  -15.4268  -28.8953  -37.0954 LP  0  0  0  0  0  0  0  0  0  0  0  0  # atno 5215 bound_to 1247
  -15.8065  -27.3679  -37.5307 LP  0  0  0  0  0  0  0  0  0  0  0  0  # atno 5216 bound_to 1247
  -12.5705  -24.5427  -38.8341 LP  0  0  0  0  0  0  0  0  0  0  0  0  # atno 5217 bound_to 1931
  -13.6600  -25.2926  -39.7919 LP  0  0  0  0  0  0  0  0  0  0  0  0  # atno 5218 bound_to 1931
  -11.1702  -22.4908  -30.9780 LP  0  0  0  0  0  0  0  0  0  0  0  0  # atno 5224 bound_to 1070
  -12.6676  -22.7001  -30.3610 LP  0  0  0  0  0  0  0  0  0  0  0  0  # atno 5225 bound_to 1070

$$$$
IA_47.cdx|SeH_inactivess_minimized|sdf|132|dock2
  -GOLD-   4172121483D 1   1.00000     0.00000

 30 31  0  0  0  0  0  0  0  0  1 V2000
   -8.3970  -28.1641  -35.1808 C   0  0  0  0  0  0  0  0  0  0  0  0
  -17.3168  -24.7411  -37.4874 C   0  0  0  0  0  0  0  0  0  0  0  0
   -8.4734  -26.8990  -34.5984 C   0  0  0  0  0  0  0  0  0  0  0  0
   -9.3268  -28.5435  -36.1489 C   0  0  0  0  0  0  0  0  0  0  0  0
  -16.1179  -24.7207  -38.2000 C   0  0  0  0  0  0  0  0  0  0  0  0
  -17.3661  -25.3257  -36.2218 C   0  0  0  0  0  0  0  0  0  0  0  0
   -9.4796  -26.0133  -34.9839 C   0  0  0  0  0  0  0  0  0  0  0  0
  -10.3330  -27.6578  -36.5344 C   0  0  0  0  0  0  0  0  0  0  0  0
  -14.9682  -25.2848  -37.6471 C   0  0  0  0  0  0  0  0  0  0  0  0
  -16.2164  -25.8898  -35.6690 C   0  0  0  0  0  0  0  0  0  0  0  0
  -10.4095  -26.3927  -35.9520 C   0  0  0  0  0  0  0  0  0  0  0  0
  -15.0175  -25.8694  -36.3815 C   0  0  0  0  0  0  0  0  0  0  0  0
  -12.7041  -25.4572  -35.4470 C   0  0  0  0  0  0  0  0  0  0  0  0
  -11.4858  -25.4462  -36.3644 C   0  0  0  0  0  0  0  0  0  0  0  0
  -13.7767  -26.4789  -35.7841 C   0  0  0  0  0  0  0  0  0  0  0  0
  -12.8054  -24.6868  -34.4928 O   0  0  0  0  0  0  0  0  0  0  0  0
   -7.6126  -28.8531  -34.8815 H   0  0  0  0  0  0  0  0  0  0  0  0
  -18.2115  -24.3006  -37.9175 H   0  0  0  0  0  0  0  0  0  0  0  0
   -7.7487  -26.6030  -33.8454 H   0  0  0  0  0  0  0  0  0  0  0  0
   -9.2670  -29.5279  -36.6034 H   0  0  0  0  0  0  0  0  0  0  0  0
  -16.0791  -24.2646  -39.1849 H   0  0  0  0  0  0  0  0  0  0  0  0
  -18.2990  -25.3408  -35.6663 H   0  0  0  0  0  0  0  0  0  0  0  0
   -9.5315  -25.0297  -34.5245 H   0  0  0  0  0  0  0  0  0  0  0  0
  -11.0532  -27.9620  -37.2894 H   0  0  0  0  0  0  0  0  0  0  0  0
  -14.0385  -25.2645  -38.2096 H   0  0  0  0  0  0  0  0  0  0  0  0
  -16.2643  -26.3432  -34.6824 H   0  0  0  0  0  0  0  0  0  0  0  0
  -11.8317  -25.6799  -37.3836 H   0  0  0  0  0  0  0  0  0  0  0  0
  -11.0977  -24.4160  -36.3935 H   0  0  0  0  0  0  0  0  0  0  0  0
  -14.0366  -27.0217  -34.8677 H   0  0  0  0  0  0  0  0  0  0  0  0
  -13.3526  -27.2081  -36.4843 H   0  0  0  0  0  0  0  0  0  0  0  0
  1  3  1  0  0  0  0
  1  4  2  0  0  0  0
  2  5  2  0  0  0  0
  2  6  1  0  0  0  0
  3  7  2  0  0  0  0
  4  8  1  0  0  0  0
  5  9  1  0  0  0  0
  6 10  2  0  0  0  0
  7 11  1  0  0  0  0
  8 11  2  0  0  0  0
  9 12  2  0  0  0  0
 10 12  1  0  0  0  0
 11 14  1  0  0  0  0
 12 15  1  0  0  0  0
 13 14  1  0  0  0  0
 13 15  1  0  0  0  0
 13 16  2  0  0  0  0
  1 17  1  0  0  0  0
  2 18  1  0  0  0  0
  3 19  1  0  0  0  0
  4 20  1  0  0  0  0
  5 21  1  0  0  0  0
  6 22  1  0  0  0  0
  7 23  1  0  0  0  0
  8 24  1  0  0  0  0
  9 25  1  0  0  0  0
 10 26  1  0  0  0  0
 14 27  1  0  0  0  0
 14 28  1  0  0  0  0
 15 29  1  0  0  0  0
 15 30  1  0  0  0  0
M  END
> <Name>
IA_47.cdx

> <SourceTag>
IA_47

> <Gold.Version>
5.2

> <Gold.Id.Protein>
6HGV|6HGV_protein|mol2

> <Gold.Goldscore.Fitness>
46.5542

> <Gold.Goldscore.Internal.Vdw>
0.0784

> <Gold.Goldscore.Internal.Torsion>
-2.1430

> <Gold.Goldscore.External.Vdw>
37.6168

> <Gold.Goldscore.Internal.HBond>
0.0000

> <Gold.Goldscore.External.HBond>
0.0000

> <Gold.Goldscore.Internal.Correction>
3.1042

> <Gold.Goldscore.Internal.Vdw.Weighted>
0.0784

> <Gold.Goldscore.Internal.Torsion.Weighted>
-2.1430

> <Gold.Goldscore.External.Vdw.Weighted>
51.7231

> <Gold.Goldscore.Internal.HBond.Weighted>
0.0000

> <Gold.Goldscore.External.HBond.Weighted>
0.0000

> <Gold.Goldscore.Internal.Correction.Weighted>
3.1042

> <Gold.Protein.RotatedTorsions>
[ 3781 1176 1175 1172 ] final  -15.32 input   60.00 | X-H torsion
[ 3847 1247 1246 1244 ] final  -12.50 input   60.00 | X-H torsion
[ 4507 1931 1930 1928 ] final  118.97 input   60.00 | X-H torsion
[ 3677 1070 1069 1066 ] final -100.83 input   60.00 | X-H torsion
[ 3525  925  924  922 ] final  -56.78 input   59.99 | X-H torsion
[ 4531 1957 1955 1953 ] final  -35.09 input   60.00 | X-H torsion

> <Gold.Protein.ActiveResidues>
 PHE267  PRO268  MET310  ASP335  TRP336  MET339  TYR343  THR360  PRO361  ILE363 
 PRO371  SER374  ILE375  ASN378  PHE381  TYR383  GLN384  PHE387  LEU408  LEU417 
 MET419  LEU428  TYR466  MET469  ASN472  ASP496  VAL498  LEU499  MET503  HIS524 
 TRP525 

> <Gold.Protein.RotatedAtoms>
   -3.7232  -29.5715  -29.5948 H   0  0  0  0  0  0  0  0  0  0  0  0  # atno 3525 bound_to 925 
  -11.7230  -23.7483  -31.4195 H   0  0  0  0  0  0  0  0  0  0  0  0  # atno 3677 bound_to 1070
  -10.7165  -37.1078  -33.8662 H   0  0  0  0  0  0  0  0  0  0  0  0  # atno 3781 bound_to 1176
  -15.8496  -28.5695  -37.0569 H   0  0  0  0  0  0  0  0  0  0  0  0  # atno 3847 bound_to 1247
  -12.4434  -23.9425  -39.3424 H   0  0  0  0  0  0  0  0  0  0  0  0  # atno 4507 bound_to 1931
   -2.3762  -32.2176  -36.7755 H   0  0  0  0  0  0  0  0  0  0  0  0  # atno 4531 bound_to 1957
   -9.3378  -36.3076  -33.5390 LP  0  0  0  0  0  0  0  0  0  0  0  0  # atno 5205 bound_to 1176
  -10.0516  -37.2161  -32.3849 LP  0  0  0  0  0  0  0  0  0  0  0  0  # atno 5206 bound_to 1176
  -15.3605  -27.1925  -37.7729 LP  0  0  0  0  0  0  0  0  0  0  0  0  # atno 5215 bound_to 1247
  -14.3497  -28.4717  -37.6803 LP  0  0  0  0  0  0  0  0  0  0  0  0  # atno 5216 bound_to 1247
  -13.2708  -25.3215  -39.0941 LP  0  0  0  0  0  0  0  0  0  0  0  0  # atno 5217 bound_to 1931
  -13.4849  -24.4746  -40.4738 LP  0  0  0  0  0  0  0  0  0  0  0  0  # atno 5218 bound_to 1931
  -11.3422  -22.2992  -30.7843 LP  0  0  0  0  0  0  0  0  0  0  0  0  # atno 5224 bound_to 1070
  -12.7904  -22.9808  -30.4605 LP  0  0  0  0  0  0  0  0  0  0  0  0  # atno 5225 bound_to 1070

$$$$
IA_152.cdx|SeH_inactivess_minimized|sdf|53|dock8
  -GOLD-   4172119483D 1   1.00000     0.00000

 20 21  0  0  0  0  0  0  0  0  1 V2000
   -6.6419  -31.1664  -35.3786 C   0  0  0  0  0  0  0  0  0  0  0  0
   -5.8913  -30.0117  -35.0765 C   0  0  0  0  0  0  0  0  0  0  0  0
   -8.0395  -31.1394  -35.3646 C   0  0  0  0  0  0  0  0  0  0  0  0
   -6.5230  -28.8072  -34.7544 C   0  0  0  0  0  0  0  0  0  0  0  0
   -8.6421  -29.9404  -35.0438 C   0  0  0  0  0  0  0  0  0  0  0  0
   -7.9028  -28.8033  -34.7463 C   0  0  0  0  0  0  0  0  0  0  0  0
  -10.0626  -29.5994  -34.9477 C   0  0  0  0  0  0  0  0  0  0  0  0
   -8.8372  -27.7147  -34.4544 C   0  0  0  0  0  0  0  0  0  0  0  0
  -11.5701  -26.4324  -35.9033 C   0  0  0  0  0  0  0  0  0  0  0  0
  -10.0913  -28.2676  -34.5956 N   0  0  0  0  0  0  0  0  0  0  0  0
  -10.9648  -30.3904  -35.1527 O   0  0  0  0  0  0  0  0  0  0  0  0
   -8.4923  -26.5860  -34.1572 O   0  0  0  0  0  0  0  0  0  0  0  0
  -11.5148  -27.4033  -34.3617 S   0  0  0  0  0  0  0  0  0  0  0  0
  -13.2784  -26.2891  -36.4337 Cl  0  0  0  0  0  0  0  0  0  0  0  0
  -10.9250  -24.7841  -35.6508 Cl  0  0  0  0  0  0  0  0  0  0  0  0
  -10.6483  -27.2396  -37.2054 Cl  0  0  0  0  0  0  0  0  0  0  0  0
   -6.1241  -32.0897  -35.6252 H   0  0  0  0  0  0  0  0  0  0  0  0
   -4.8055  -30.0615  -35.0955 H   0  0  0  0  0  0  0  0  0  0  0  0
   -8.6156  -32.0268  -35.5977 H   0  0  0  0  0  0  0  0  0  0  0  0
   -5.9452  -27.9205  -34.5220 H   0  0  0  0  0  0  0  0  0  0  0  0
  1  2  2  0  0  0  0
  1  3  1  0  0  0  0
  2  4  1  0  0  0  0
  3  5  2  0  0  0  0
  4  6  2  0  0  0  0
  5  6  1  0  0  0  0
  5  7  1  0  0  0  0
  6  8  1  0  0  0  0
  7 10  1  0  0  0  0
  7 11  2  0  0  0  0
  8 10  1  0  0  0  0
  8 12  2  0  0  0  0
  9 13  1  0  0  0  0
  9 14  1  0  0  0  0
  9 15  1  0  0  0  0
  9 16  1  0  0  0  0
 10 13  1  0  0  0  0
  1 17  1  0  0  0  0
  2 18  1  0  0  0  0
  3 19  1  0  0  0  0
  4 20  1  0  0  0  0
M  END
> <Name>
IA_152.cdx

> <SourceTag>
IA_152

> <Gold.Version>
5.2

> <Gold.Id.Protein>
6HGV|6HGV_protein|mol2

> <Gold.Goldscore.Fitness>
41.5551

> <Gold.Goldscore.Internal.Vdw>
1.8822

> <Gold.Goldscore.Internal.Torsion>
-0.9235

> <Gold.Goldscore.External.Vdw>
30.6185

> <Gold.Goldscore.Internal.HBond>
0.0000

> <Gold.Goldscore.External.HBond>
0.4694

> <Gold.Goldscore.Internal.Correction>
1.9733

> <Gold.Goldscore.Hbonds>
donor molecule, donor type, donor heavy atom, donor atom, acceptor molecule, acceptor atom, score
      P1  H  1256  3854       L1    11  0.23

> <Gold.Goldscore.Internal.Vdw.Weighted>
1.8822

> <Gold.Goldscore.Internal.Torsion.Weighted>
-0.9235

> <Gold.Goldscore.External.Vdw.Weighted>
42.1004

> <Gold.Goldscore.Internal.HBond.Weighted>
0.0000

> <Gold.Goldscore.External.HBond.Weighted>
0.4694

> <Gold.Goldscore.Internal.Correction.Weighted>
1.9733

> <Gold.Protein.RotatedTorsions>
[ 3781 1176 1175 1172 ] final  -53.21 input   60.00 | X-H torsion
[ 3847 1247 1246 1244 ] final   69.49 input   60.00 | X-H torsion
[ 4507 1931 1930 1928 ] final   96.00 input   60.00 | X-H torsion
[ 3677 1070 1069 1066 ] final -126.75 input   60.00 | X-H torsion
[ 3525  925  924  922 ] final   13.96 input   59.99 | X-H torsion
[ 4531 1957 1955 1953 ] final   41.50 input   60.00 | X-H torsion

> <Gold.Protein.ActiveResidues>
 PHE267  PRO268  MET310  ASP335  TRP336  MET339  TYR343  THR360  PRO361  ILE363 
 PRO371  SER374  ILE375  ASN378  PHE381  TYR383  GLN384  PHE387  LEU408  LEU417 
 MET419  LEU428  TYR466  MET469  ASN472  ASP496  VAL498  LEU499  MET503  HIS524 
 TRP525 

> <Gold.Protein.RotatedAtoms>
   -3.4515  -29.5940  -30.6438 H   0  0  0  0  0  0  0  0  0  0  0  0  # atno 3525 bound_to 925 
  -11.3829  -23.5034  -31.4472 H   0  0  0  0  0  0  0  0  0  0  0  0  # atno 3677 bound_to 1070
  -10.3216  -36.7396  -34.1459 H   0  0  0  0  0  0  0  0  0  0  0  0  # atno 3781 bound_to 1176
  -14.7069  -28.8740  -37.3889 H   0  0  0  0  0  0  0  0  0  0  0  0  # atno 3847 bound_to 1247
  -12.4447  -24.1825  -39.0570 H   0  0  0  0  0  0  0  0  0  0  0  0  # atno 4507 bound_to 1931
   -3.0988  -33.1175  -36.6537 H   0  0  0  0  0  0  0  0  0  0  0  0  # atno 4531 bound_to 1957
   -9.2474  -36.4662  -32.9545 LP  0  0  0  0  0  0  0  0  0  0  0  0  # atno 5205 bound_to 1176
  -10.5397  -37.4283  -32.6877 LP  0  0  0  0  0  0  0  0  0  0  0  0  # atno 5206 bound_to 1176
  -16.0716  -28.0128  -37.1799 LP  0  0  0  0  0  0  0  0  0  0  0  0  # atno 5215 bound_to 1247
  -14.7893  -27.3447  -37.9388 LP  0  0  0  0  0  0  0  0  0  0  0  0  # atno 5216 bound_to 1247
  -13.4898  -25.3837  -39.3928 LP  0  0  0  0  0  0  0  0  0  0  0  0  # atno 5217 bound_to 1931
  -13.2646  -24.1707  -40.4626 LP  0  0  0  0  0  0  0  0  0  0  0  0  # atno 5218 bound_to 1931
  -11.6731  -22.1761  -30.5515 LP  0  0  0  0  0  0  0  0  0  0  0  0  # atno 5224 bound_to 1070
  -12.8020  -23.3506  -30.6654 LP  0  0  0  0  0  0  0  0  0  0  0  0  # atno 5225 bound_to 1070

$$$$
IA_118.cdx|SeH_inactivess_minimized|sdf|20|dock5
  -GOLD-   4172118563D 1   1.00000     0.00000

 24 24  0  0  0  0  0  0  0  0  1 V2000
   -9.0169  -27.0972  -34.9728 C   0  0  0  0  0  0  0  0  0  0  0  0
   -9.7279  -27.6547  -36.0354 C   0  0  0  0  0  0  0  0  0  0  0  0
   -9.3783  -25.8468  -34.4712 C   0  0  0  0  0  0  0  0  0  0  0  0
  -10.8006  -26.9617  -36.5965 C   0  0  0  0  0  0  0  0  0  0  0  0
  -10.4510  -25.1538  -35.0324 C   0  0  0  0  0  0  0  0  0  0  0  0
  -11.1622  -25.7113  -36.0950 C   0  0  0  0  0  0  0  0  0  0  0  0
  -13.3418  -25.5358  -37.3597 C   0  0  0  0  0  0  0  0  0  0  0  0
  -16.4001  -23.6417  -38.2909 C   0  0  0  0  0  0  0  0  0  0  0  0
  -15.4198  -24.7450  -38.5021 C   0  0  0  0  0  0  0  0  0  0  0  0
  -12.2353  -25.0184  -36.6563 N   0  0  0  0  0  0  0  0  0  0  0  0
  -14.2018  -24.5088  -37.7617 N   0  0  0  0  0  0  0  0  0  0  0  0
  -13.5521  -26.7216  -37.6029 O   0  0  0  0  0  0  0  0  0  0  0  0
   -8.1820  -27.6369  -34.5351 H   0  0  0  0  0  0  0  0  0  0  0  0
   -9.4473  -28.6285  -36.4256 H   0  0  0  0  0  0  0  0  0  0  0  0
   -8.8250  -25.4134  -33.6431 H   0  0  0  0  0  0  0  0  0  0  0  0
  -11.3476  -27.4061  -37.4242 H   0  0  0  0  0  0  0  0  0  0  0  0
  -10.7238  -24.1800  -34.6332 H   0  0  0  0  0  0  0  0  0  0  0  0
  -16.6757  -23.5610  -37.2338 H   0  0  0  0  0  0  0  0  0  0  0  0
  -15.9899  -22.6848  -38.6313 H   0  0  0  0  0  0  0  0  0  0  0  0
  -17.3135  -23.8419  -38.8639 H   0  0  0  0  0  0  0  0  0  0  0  0
  -15.1564  -24.8263  -39.5609 H   0  0  0  0  0  0  0  0  0  0  0  0
  -15.8333  -25.7009  -38.1674 H   0  0  0  0  0  0  0  0  0  0  0  0
  -12.2313  -23.9985  -36.5499 H   0  0  0  0  0  0  0  0  0  0  0  0
  -13.9589  -23.5527  -37.5221 H   0  0  0  0  0  0  0  0  0  0  0  0
  1  2  2  0  0  0  0
  1  3  1  0  0  0  0
  2  4  1  0  0  0  0
  3  5  2  0  0  0  0
  4  6  2  0  0  0  0
  5  6  1  0  0  0  0
  6 10  1  0  0  0  0
  7 10  1  0  0  0  0
  7 11  1  0  0  0  0
  7 12  2  0  0  0  0
  8  9  1  0  0  0  0
  9 11  1  0  0  0  0
  1 13  1  0  0  0  0
  2 14  1  0  0  0  0
  3 15  1  0  0  0  0
  4 16  1  0  0  0  0
  5 17  1  0  0  0  0
  8 18  1  0  0  0  0
  8 19  1  0  0  0  0
  8 20  1  0  0  0  0
  9 21  1  0  0  0  0
  9 22  1  0  0  0  0
 10 23  1  0  0  0  0
 11 24  1  0  0  0  0
M  END
> <Name>
IA_118.cdx

> <SourceTag>
IA_118

> <Gold.Version>
5.2

> <Gold.Id.Protein>
6HGV|6HGV_protein|mol2

> <Gold.Goldscore.Fitness>
47.3579

> <Gold.Goldscore.Internal.Vdw>
-2.0905

> <Gold.Goldscore.Internal.Torsion>
-1.7161

> <Gold.Goldscore.External.Vdw>
30.9127

> <Gold.Goldscore.Internal.HBond>
0.0000

> <Gold.Goldscore.External.HBond>
5.4914

> <Gold.Goldscore.Internal.Correction>
-3.1681

> <Gold.Goldscore.Hbonds>
donor molecule, donor type, donor heavy atom, donor atom, acceptor molecule, acceptor atom, score
      P1  H  1247  3847       L1    12  0.15
      L1  H    10    23       P1   854  0.58
      L1  H    11    24       P1   854  0.28

> <Gold.Goldscore.Internal.Vdw.Weighted>
-2.0905

> <Gold.Goldscore.Internal.Torsion.Weighted>
-1.7161

> <Gold.Goldscore.External.Vdw.Weighted>
42.5049

> <Gold.Goldscore.Internal.HBond.Weighted>
0.0000

> <Gold.Goldscore.External.HBond.Weighted>
5.4914

> <Gold.Goldscore.Internal.Correction.Weighted>
-3.1681

> <Gold.Protein.RotatedTorsions>
[ 3781 1176 1175 1172 ] final   52.11 input   60.00 | X-H torsion
[ 3847 1247 1246 1244 ] final  147.25 input   60.00 | X-H torsion
[ 4507 1931 1930 1928 ] final  161.12 input   60.00 | X-H torsion
[ 3677 1070 1069 1066 ] final -122.57 input   60.00 | X-H torsion
[ 3525  925  924  922 ] final  -26.39 input   59.99 | X-H torsion
[ 4531 1957 1955 1953 ] final    5.77 input   60.00 | X-H torsion

> <Gold.Protein.ActiveResidues>
 PHE267  PRO268  MET310  ASP335  TRP336  MET339  TYR343  THR360  PRO361  ILE363 
 PRO371  SER374  ILE375  ASN378  PHE381  TYR383  GLN384  PHE387  LEU408  LEU417 
 MET419  LEU428  TYR466  MET469  ASN472  ASP496  VAL498  LEU499  MET503  HIS524 
 TRP525 

> <Gold.Protein.RotatedAtoms>
   -3.7571  -29.5123  -30.0806 H   0  0  0  0  0  0  0  0  0  0  0  0  # atno 3525 bound_to 925 
  -11.4316  -23.5511  -31.4504 H   0  0  0  0  0  0  0  0  0  0  0  0  # atno 3677 bound_to 1070
  -10.6751  -37.4477  -32.8850 H   0  0  0  0  0  0  0  0  0  0  0  0  # atno 3781 bound_to 1176
  -14.3681  -27.8737  -37.9045 H   0  0  0  0  0  0  0  0  0  0  0  0  # atno 3847 bound_to 1247
  -12.6862  -23.7812  -39.9493 H   0  0  0  0  0  0  0  0  0  0  0  0  # atno 4507 bound_to 1931
   -2.9160  -32.5734  -36.6791 H   0  0  0  0  0  0  0  0  0  0  0  0  # atno 4531 bound_to 1957
  -10.1265  -36.6006  -34.1615 LP  0  0  0  0  0  0  0  0  0  0  0  0  # atno 5205 bound_to 1176
   -9.3046  -36.5807  -32.7505 LP  0  0  0  0  0  0  0  0  0  0  0  0  # atno 5206 bound_to 1176
  -15.3264  -28.9304  -37.1215 LP  0  0  0  0  0  0  0  0  0  0  0  0  # atno 5215 bound_to 1247
  -15.8758  -27.4345  -37.4780 LP  0  0  0  0  0  0  0  0  0  0  0  0  # atno 5216 bound_to 1247
  -12.8132  -24.9208  -38.7946 LP  0  0  0  0  0  0  0  0  0  0  0  0  # atno 5217 bound_to 1931
  -13.6980  -25.0378  -40.1621 LP  0  0  0  0  0  0  0  0  0  0  0  0  # atno 5218 bound_to 1931
  -11.6141  -22.1848  -30.5856 LP  0  0  0  0  0  0  0  0  0  0  0  0  # atno 5224 bound_to 1070
  -12.8120  -23.2937  -30.6281 LP  0  0  0  0  0  0  0  0  0  0  0  0  # atno 5225 bound_to 1070

$$$$
IA_143.cdx|SeH_inactivess_minimized|sdf|46|dock7
  -GOLD-   4172119373D 1   1.00000     0.00000

 23 23  0  0  0  0  0  0  0  0  1 V2000
   -9.3316  -26.4183  -34.6537 C   0  0  0  0  0  0  0  0  0  0  0  0
   -9.7474  -27.1637  -35.7569 C   0  0  0  0  0  0  0  0  0  0  0  0
  -10.0622  -25.2999  -34.2521 C   0  0  0  0  0  0  0  0  0  0  0  0
  -10.8937  -26.7907  -36.4586 C   0  0  0  0  0  0  0  0  0  0  0  0
  -11.2085  -24.9269  -34.9538 C   0  0  0  0  0  0  0  0  0  0  0  0
  -11.6243  -25.6724  -36.0572 C   0  0  0  0  0  0  0  0  0  0  0  0
  -14.1486  -25.6093  -36.0868 C   0  0  0  0  0  0  0  0  0  0  0  0
  -16.5767  -25.1315  -36.2707 C   0  0  0  0  0  0  0  0  0  0  0  0
  -12.8617  -25.2690  -36.8144 C   0  0  0  0  0  0  0  0  0  0  0  0
  -17.4448  -24.4220  -37.0827 N   0  0  0  0  0  0  0  0  0  0  0  0
  -15.2515  -25.0101  -36.6997 N   0  0  0  0  0  0  0  0  0  0  0  0
  -14.1948  -26.3233  -35.0887 O   0  0  0  0  0  0  0  0  0  0  0  0
  -16.9523  -25.7824  -35.2975 O   0  0  0  0  0  0  0  0  0  0  0  0
   -8.4398  -26.7098  -34.1065 H   0  0  0  0  0  0  0  0  0  0  0  0
   -9.1794  -28.0352  -36.0689 H   0  0  0  0  0  0  0  0  0  0  0  0
   -9.7394  -24.7201  -33.3926 H   0  0  0  0  0  0  0  0  0  0  0  0
  -11.2101  -27.3773  -37.3172 H   0  0  0  0  0  0  0  0  0  0  0  0
  -11.7713  -24.0540  -34.6339 H   0  0  0  0  0  0  0  0  0  0  0  0
  -12.8727  -25.7609  -37.7953 H   0  0  0  0  0  0  0  0  0  0  0  0
  -12.8397  -24.1888  -37.0068 H   0  0  0  0  0  0  0  0  0  0  0  0
  -18.4381  -24.4293  -36.8769 H   0  0  0  0  0  0  0  0  0  0  0  0
  -17.1048  -23.8947  -37.8799 H   0  0  0  0  0  0  0  0  0  0  0  0
  -15.0878  -24.4376  -37.5236 H   0  0  0  0  0  0  0  0  0  0  0  0
  1  2  2  0  0  0  0
  1  3  1  0  0  0  0
  2  4  1  0  0  0  0
  3  5  2  0  0  0  0
  4  6  2  0  0  0  0
  5  6  1  0  0  0  0
  6  9  1  0  0  0  0
  7  9  1  0  0  0  0
  7 11  1  0  0  0  0
  7 12  2  0  0  0  0
  8 10  1  0  0  0  0
  8 11  1  0  0  0  0
  8 13  2  0  0  0  0
  1 14  1  0  0  0  0
  2 15  1  0  0  0  0
  3 16  1  0  0  0  0
  4 17  1  0  0  0  0
  5 18  1  0  0  0  0
  9 19  1  0  0  0  0
  9 20  1  0  0  0  0
 10 21  1  0  0  0  0
 10 22  1  0  0  0  0
 11 23  1  0  0  0  0
M  END
> <Name>
IA_143.cdx

> <SourceTag>
IA_143

> <Gold.Version>
5.2

> <Gold.Id.Protein>
6HGV|6HGV_protein|mol2

> <Gold.Goldscore.Fitness>
44.4105

> <Gold.Goldscore.Internal.Vdw>
-3.3849

> <Gold.Goldscore.Internal.Torsion>
-1.0276

> <Gold.Goldscore.External.Vdw>
32.6117

> <Gold.Goldscore.Internal.HBond>
0.0000

> <Gold.Goldscore.External.HBond>
0.1072

> <Gold.Goldscore.Internal.Correction>
-3.8747

> <Gold.Goldscore.Hbonds>
donor molecule, donor type, donor heavy atom, donor atom, acceptor molecule, acceptor atom, score
      P1  H  1247  3847       L1    13  0.05

> <Gold.Goldscore.Internal.Vdw.Weighted>
-3.3849

> <Gold.Goldscore.Internal.Torsion.Weighted>
-1.0276

> <Gold.Goldscore.External.Vdw.Weighted>
44.8411

> <Gold.Goldscore.Internal.HBond.Weighted>
0.0000

> <Gold.Goldscore.External.HBond.Weighted>
0.1072

> <Gold.Goldscore.Internal.Correction.Weighted>
-3.8747

> <Gold.Protein.RotatedTorsions>
[ 3781 1176 1175 1172 ] final   99.14 input   60.00 | X-H torsion
[ 3847 1247 1246 1244 ] final  -72.13 input   60.00 | X-H torsion
[ 4507 1931 1930 1928 ] final  -71.62 input   60.00 | X-H torsion
[ 3677 1070 1069 1066 ] final -128.89 input   60.00 | X-H torsion
[ 3525  925  924  922 ] final   41.39 input   59.99 | X-H torsion
[ 4531 1957 1955 1953 ] final   31.34 input   60.00 | X-H torsion

> <Gold.Protein.ActiveResidues>
 PHE267  PRO268  MET310  ASP335  TRP336  MET339  TYR343  THR360  PRO361  ILE363 
 PRO371  SER374  ILE375  ASN378  PHE381  TYR383  GLN384  PHE387  LEU408  LEU417 
 MET419  LEU428  TYR466  MET469  ASN472  ASP496  VAL498  LEU499  MET503  HIS524 
 TRP525 

> <Gold.Protein.RotatedAtoms>
   -3.0827  -29.7363  -30.8456 H   0  0  0  0  0  0  0  0  0  0  0  0  # atno 3525 bound_to 925 
  -11.3592  -23.4779  -31.4443 H   0  0  0  0  0  0  0  0  0  0  0  0  # atno 3677 bound_to 1070
  -10.1269  -37.2583  -32.4142 H   0  0  0  0  0  0  0  0  0  0  0  0  # atno 3781 bound_to 1176
  -16.0228  -27.6946  -37.3235 H   0  0  0  0  0  0  0  0  0  0  0  0  # atno 3847 bound_to 1247
  -13.6961  -25.1151  -40.0716 H   0  0  0  0  0  0  0  0  0  0  0  0  # atno 4507 bound_to 1931
   -3.0814  -32.9526  -36.6542 H   0  0  0  0  0  0  0  0  0  0  0  0  # atno 4531 bound_to 1957
  -10.6795  -37.0558  -33.9313 LP  0  0  0  0  0  0  0  0  0  0  0  0  # atno 5205 bound_to 1176
   -9.3037  -36.3163  -33.4548 LP  0  0  0  0  0  0  0  0  0  0  0  0  # atno 5206 bound_to 1176
  -14.5261  -27.5806  -37.9519 LP  0  0  0  0  0  0  0  0  0  0  0  0  # atno 5215 bound_to 1247
  -15.0096  -28.9647  -37.2327 LP  0  0  0  0  0  0  0  0  0  0  0  0  # atno 5216 bound_to 1247
  -12.7529  -23.7893  -40.0477 LP  0  0  0  0  0  0  0  0  0  0  0  0  # atno 5217 bound_to 1931
  -12.7414  -24.8259  -38.7859 LP  0  0  0  0  0  0  0  0  0  0  0  0  # atno 5218 bound_to 1931
  -11.7040  -22.1733  -30.5348 LP  0  0  0  0  0  0  0  0  0  0  0  0  # atno 5224 bound_to 1070
  -12.7951  -23.3790  -30.6850 LP  0  0  0  0  0  0  0  0  0  0  0  0  # atno 5225 bound_to 1070

$$$$
IA_156.cdx|SeH_inactivess_minimized|sdf|57|dock2
  -GOLD-   4172119513D 1   1.00000     0.00000

 23 22  0  0  0  0  0  0  0  0  1 V2000
  -13.7000  -26.9811  -35.1985 C   0  0  0  0  0  0  0  0  0  0  0  0
  -11.2302  -25.7050  -33.3237 C   0  0  0  0  0  0  0  0  0  0  0  0
  -10.9020  -25.6288  -35.8201 C   0  0  0  0  0  0  0  0  0  0  0  0
  -14.6725  -25.0783  -37.1588 C   0  0  0  0  0  0  0  0  0  0  0  0
  -16.8059  -25.5778  -35.9161 C   0  0  0  0  0  0  0  0  0  0  0  0
  -11.9057  -25.7695  -34.6855 C   0  0  0  0  0  0  0  0  0  0  0  0
  -15.2858  -25.5643  -35.8541 C   0  0  0  0  0  0  0  0  0  0  0  0
  -12.5935  -27.0586  -34.8151 N   0  0  0  0  0  0  0  0  0  0  0  0
  -14.8089  -26.9223  -35.5812 N   0  0  0  0  0  0  0  0  0  0  0  0
  -10.6732  -24.7698  -33.2074 H   0  0  0  0  0  0  0  0  0  0  0  0
  -11.9731  -25.7607  -32.5207 H   0  0  0  0  0  0  0  0  0  0  0  0
  -10.5326  -26.5385  -33.1843 H   0  0  0  0  0  0  0  0  0  0  0  0
  -10.5014  -24.6110  -35.8639 H   0  0  0  0  0  0  0  0  0  0  0  0
  -11.3739  -25.8507  -36.7832 H   0  0  0  0  0  0  0  0  0  0  0  0
  -10.0624  -26.3223  -35.6985 H   0  0  0  0  0  0  0  0  0  0  0  0
  -15.1092  -24.1218  -37.4637 H   0  0  0  0  0  0  0  0  0  0  0  0
  -13.5914  -24.9395  -37.0496 H   0  0  0  0  0  0  0  0  0  0  0  0
  -14.8311  -25.8002  -37.9676 H   0  0  0  0  0  0  0  0  0  0  0  0
  -17.2310  -25.9982  -34.9991 H   0  0  0  0  0  0  0  0  0  0  0  0
  -17.1529  -26.1827  -36.7607 H   0  0  0  0  0  0  0  0  0  0  0  0
  -17.2089  -24.5675  -36.0484 H   0  0  0  0  0  0  0  0  0  0  0  0
  -12.6506  -24.9701  -34.7590 H   0  0  0  0  0  0  0  0  0  0  0  0
  -14.9620  -24.9121  -35.0359 H   0  0  0  0  0  0  0  0  0  0  0  0
  1  8  2  0  0  0  0
  1  9  2  0  0  0  0
  2  6  1  0  0  0  0
  3  6  1  0  0  0  0
  4  7  1  0  0  0  0
  5  7  1  0  0  0  0
  6  8  1  0  0  0  0
  7  9  1  0  0  0  0
  2 10  1  0  0  0  0
  2 11  1  0  0  0  0
  2 12  1  0  0  0  0
  3 13  1  0  0  0  0
  3 14  1  0  0  0  0
  3 15  1  0  0  0  0
  4 16  1  0  0  0  0
  4 17  1  0  0  0  0
  4 18  1  0  0  0  0
  5 19  1  0  0  0  0
  5 20  1  0  0  0  0
  5 21  1  0  0  0  0
  6 22  1  0  0  0  0
  7 23  1  0  0  0  0
M  END
> <Name>
IA_156.cdx

> <SourceTag>
IA_156

> <Gold.Version>
5.2

> <Gold.Id.Protein>
6HGV|6HGV_protein|mol2

> <Gold.Goldscore.Fitness>
33.5760

> <Gold.Goldscore.Internal.Vdw>
-3.4830

> <Gold.Goldscore.Internal.Torsion>
-1.4873

> <Gold.Goldscore.External.Vdw>
25.1448

> <Gold.Goldscore.Internal.HBond>
0.0000

> <Gold.Goldscore.External.HBond>
0.0000

> <Gold.Goldscore.Internal.Correction>
-3.9722

> <Gold.Goldscore.Internal.Vdw.Weighted>
-3.4830

> <Gold.Goldscore.Internal.Torsion.Weighted>
-1.4873

> <Gold.Goldscore.External.Vdw.Weighted>
34.5742

> <Gold.Goldscore.Internal.HBond.Weighted>
0.0000

> <Gold.Goldscore.External.HBond.Weighted>
0.0000

> <Gold.Goldscore.Internal.Correction.Weighted>
-3.9722

> <Gold.Protein.RotatedTorsions>
[ 3781 1176 1175 1172 ] final   84.88 input   60.00 | X-H torsion
[ 3847 1247 1246 1244 ] final   63.49 input   60.00 | X-H torsion
[ 4507 1931 1930 1928 ] final -150.26 input   60.00 | X-H torsion
[ 3677 1070 1069 1066 ] final -161.47 input   60.00 | X-H torsion
[ 3525  925  924  922 ] final   69.94 input   59.99 | X-H torsion
[ 4531 1957 1955 1953 ] final  -29.48 input   60.00 | X-H torsion

> <Gold.Protein.ActiveResidues>
 PHE267  PRO268  MET310  ASP335  TRP336  MET339  TYR343  THR360  PRO361  ILE363 
 PRO371  SER374  ILE375  ASN378  PHE381  TYR383  GLN384  PHE387  LEU408  LEU417 
 MET419  LEU428  TYR466  MET469  ASN472  ASP496  VAL498  LEU499  MET503  HIS524 
 TRP525 

> <Gold.Protein.RotatedAtoms>
   -2.6598  -29.9213  -30.8388 H   0  0  0  0  0  0  0  0  0  0  0  0  # atno 3525 bound_to 925 
  -11.1154  -23.0323  -31.3104 H   0  0  0  0  0  0  0  0  0  0  0  0  # atno 3677 bound_to 1070
  -10.3184  -37.3511  -32.5077 H   0  0  0  0  0  0  0  0  0  0  0  0  # atno 3781 bound_to 1176
  -14.7864  -28.9097  -37.3440 H   0  0  0  0  0  0  0  0  0  0  0  0  # atno 3847 bound_to 1247
  -13.1948  -24.1019  -40.4316 H   0  0  0  0  0  0  0  0  0  0  0  0  # atno 4507 bound_to 1931
   -2.4631  -32.2418  -36.7594 H   0  0  0  0  0  0  0  0  0  0  0  0  # atno 4531 bound_to 1957
  -10.5424  -36.9162  -34.0597 LP  0  0  0  0  0  0  0  0  0  0  0  0  # atno 5205 bound_to 1176
   -9.2480  -36.3625  -33.2322 LP  0  0  0  0  0  0  0  0  0  0  0  0  # atno 5206 bound_to 1176
  -16.0720  -27.9206  -37.2151 LP  0  0  0  0  0  0  0  0  0  0  0  0  # atno 5215 bound_to 1247
  -14.7089  -27.4010  -37.9489 LP  0  0  0  0  0  0  0  0  0  0  0  0  # atno 5216 bound_to 1247
  -12.4600  -24.2572  -38.9880 LP  0  0  0  0  0  0  0  0  0  0  0  0  # atno 5217 bound_to 1931
  -13.5391  -25.3785  -39.4830 LP  0  0  0  0  0  0  0  0  0  0  0  0  # atno 5218 bound_to 1931
  -12.1904  -22.2737  -30.3528 LP  0  0  0  0  0  0  0  0  0  0  0  0  # atno 5224 bound_to 1070
  -12.5541  -23.7273  -31.0019 LP  0  0  0  0  0  0  0  0  0  0  0  0  # atno 5225 bound_to 1070

$$$$
IA_101.cdx|SeH_inactivess_minimized|sdf|3|dock1
  -GOLD-   4172118213D 1   1.00000     0.00000

 56 55  0  0  0  0  0  0  0  0  1 V2000
   -5.3499  -32.5438  -35.3649 C   0  0  0  0  0  0  0  0  0  0  0  0
  -21.1785  -23.6661  -39.8899 C   0  0  0  0  0  0  0  0  0  0  0  0
  -21.1667  -23.4281  -38.3881 C   0  0  0  0  0  0  0  0  0  0  0  0
  -20.2212  -24.3625  -37.6297 C   0  0  0  0  0  0  0  0  0  0  0  0
  -18.7407  -24.2617  -38.0125 C   0  0  0  0  0  0  0  0  0  0  0  0
  -17.7543  -24.9039  -37.0323 C   0  0  0  0  0  0  0  0  0  0  0  0
  -16.2903  -24.7408  -37.4482 C   0  0  0  0  0  0  0  0  0  0  0  0
  -15.3521  -25.4003  -36.4343 C   0  0  0  0  0  0  0  0  0  0  0  0
  -13.8714  -25.2916  -36.8114 C   0  0  0  0  0  0  0  0  0  0  0  0
  -12.8810  -25.9111  -35.8203 C   0  0  0  0  0  0  0  0  0  0  0  0
  -11.4212  -25.5627  -36.1174 C   0  0  0  0  0  0  0  0  0  0  0  0
  -10.4680  -26.3787  -35.2414 C   0  0  0  0  0  0  0  0  0  0  0  0
  -10.4371  -27.8475  -35.6713 C   0  0  0  0  0  0  0  0  0  0  0  0
   -9.2048  -28.5617  -35.1122 C   0  0  0  0  0  0  0  0  0  0  0  0
   -9.1213  -30.0384  -35.5114 C   0  0  0  0  0  0  0  0  0  0  0  0
   -7.8864  -30.7511  -34.9501 C   0  0  0  0  0  0  0  0  0  0  0  0
   -7.8231  -32.2199  -35.3596 C   0  0  0  0  0  0  0  0  0  0  0  0
   -4.3670  -33.3126  -34.7678 N   0  0  0  0  0  0  0  0  0  0  0  0
   -6.6239  -32.8663  -34.9037 N   0  0  0  0  0  0  0  0  0  0  0  0
   -5.1023  -31.6803  -36.2047 O   0  0  0  0  0  0  0  0  0  0  0  0
  -21.9192  -23.0287  -40.3828 H   0  0  0  0  0  0  0  0  0  0  0  0
  -21.4341  -24.7091  -40.1028 H   0  0  0  0  0  0  0  0  0  0  0  0
  -20.1994  -23.4675  -40.3356 H   0  0  0  0  0  0  0  0  0  0  0  0
  -22.1859  -23.5138  -37.9957 H   0  0  0  0  0  0  0  0  0  0  0  0
  -20.8510  -22.3943  -38.2025 H   0  0  0  0  0  0  0  0  0  0  0  0
  -20.5635  -25.3949  -37.7688 H   0  0  0  0  0  0  0  0  0  0  0  0
  -20.3115  -24.1604  -36.5547 H   0  0  0  0  0  0  0  0  0  0  0  0
  -18.4868  -23.1999  -38.1243 H   0  0  0  0  0  0  0  0  0  0  0  0
  -18.5912  -24.7110  -39.0016 H   0  0  0  0  0  0  0  0  0  0  0  0
  -17.9029  -24.4943  -36.0266 H   0  0  0  0  0  0  0  0  0  0  0  0
  -17.9908  -25.9734  -36.9661 H   0  0  0  0  0  0  0  0  0  0  0  0
  -16.0505  -23.6760  -37.5280 H   0  0  0  0  0  0  0  0  0  0  0  0
  -16.1363  -25.1880  -38.4374 H   0  0  0  0  0  0  0  0  0  0  0  0
  -15.5183  -24.9702  -35.4399 H   0  0  0  0  0  0  0  0  0  0  0  0
  -15.6031  -26.4655  -36.3528 H   0  0  0  0  0  0  0  0  0  0  0  0
  -13.6154  -24.2324  -36.9385 H   0  0  0  0  0  0  0  0  0  0  0  0
  -13.7300  -25.7613  -37.7929 H   0  0  0  0  0  0  0  0  0  0  0  0
  -13.0061  -26.9997  -35.7958 H   0  0  0  0  0  0  0  0  0  0  0  0
  -13.1382  -25.5513  -34.8160 H   0  0  0  0  0  0  0  0  0  0  0  0
  -11.1945  -25.7607  -37.1709 H   0  0  0  0  0  0  0  0  0  0  0  0
  -11.2556  -24.4927  -35.9432 H   0  0  0  0  0  0  0  0  0  0  0  0
  -10.7833  -26.3099  -34.1930 H   0  0  0  0  0  0  0  0  0  0  0  0
   -9.4579  -25.9559  -35.3045 H   0  0  0  0  0  0  0  0  0  0  0  0
  -10.4331  -27.9089  -36.7663 H   0  0  0  0  0  0  0  0  0  0  0  0
  -11.3499  -28.3415  -35.3207 H   0  0  0  0  0  0  0  0  0  0  0  0
   -8.3025  -28.0581  -35.4807 H   0  0  0  0  0  0  0  0  0  0  0  0
   -9.1899  -28.4751  -34.0190 H   0  0  0  0  0  0  0  0  0  0  0  0
   -9.1055  -30.0894  -36.6066 H   0  0  0  0  0  0  0  0  0  0  0  0
  -10.0295  -30.5593  -35.1845 H   0  0  0  0  0  0  0  0  0  0  0  0
   -7.9025  -30.7063  -33.8557 H   0  0  0  0  0  0  0  0  0  0  0  0
   -6.9788  -30.2336  -35.2843 H   0  0  0  0  0  0  0  0  0  0  0  0
   -8.6650  -32.7660  -34.9223 H   0  0  0  0  0  0  0  0  0  0  0  0
   -7.8727  -32.3318  -36.4474 H   0  0  0  0  0  0  0  0  0  0  0  0
   -3.3860  -33.1960  -34.9978 H   0  0  0  0  0  0  0  0  0  0  0  0
   -4.5998  -34.0188  -34.0775 H   0  0  0  0  0  0  0  0  0  0  0  0
   -6.7101  -33.6018  -34.2037 H   0  0  0  0  0  0  0  0  0  0  0  0
  1 18  1  0  0  0  0
  1 19  1  0  0  0  0
  1 20  2  0  0  0  0
  2  3  1  0  0  0  0
  3  4  1  0  0  0  0
  4  5  1  0  0  0  0
  5  6  1  0  0  0  0
  6  7  1  0  0  0  0
  7  8  1  0  0  0  0
  8  9  1  0  0  0  0
  9 10  1  0  0  0  0
 10 11  1  0  0  0  0
 11 12  1  0  0  0  0
 12 13  1  0  0  0  0
 13 14  1  0  0  0  0
 14 15  1  0  0  0  0
 15 16  1  0  0  0  0
 16 17  1  0  0  0  0
 17 19  1  0  0  0  0
  2 21  1  0  0  0  0
  2 22  1  0  0  0  0
  2 23  1  0  0  0  0
  3 24  1  0  0  0  0
  3 25  1  0  0  0  0
  4 26  1  0  0  0  0
  4 27  1  0  0  0  0
  5 28  1  0  0  0  0
  5 29  1  0  0  0  0
  6 30  1  0  0  0  0
  6 31  1  0  0  0  0
  7 32  1  0  0  0  0
  7 33  1  0  0  0  0
  8 34  1  0  0  0  0
  8 35  1  0  0  0  0
  9 36  1  0  0  0  0
  9 37  1  0  0  0  0
 10 38  1  0  0  0  0
 10 39  1  0  0  0  0
 11 40  1  0  0  0  0
 11 41  1  0  0  0  0
 12 42  1  0  0  0  0
 12 43  1  0  0  0  0
 13 44  1  0  0  0  0
 13 45  1  0  0  0  0
 14 46  1  0  0  0  0
 14 47  1  0  0  0  0
 15 48  1  0  0  0  0
 15 49  1  0  0  0  0
 16 50  1  0  0  0  0
 16 51  1  0  0  0  0
 17 52  1  0  0  0  0
 17 53  1  0  0  0  0
 18 54  1  0  0  0  0
 18 55  1  0  0  0  0
 19 56  1  0  0  0  0
M  END
> <Name>
IA_101.cdx

> <SourceTag>
IA_101

> <Gold.Version>
5.2

> <Gold.Id.Protein>
6HGV|6HGV_protein|mol2

> <Gold.Goldscore.Fitness>
66.1267

> <Gold.Goldscore.Internal.Vdw>
-6.2705

> <Gold.Goldscore.Internal.Torsion>
-2.5490

> <Gold.Goldscore.External.Vdw>
49.3755

> <Gold.Goldscore.Internal.HBond>
0.0000

> <Gold.Goldscore.External.HBond>
0.0000

> <Gold.Goldscore.Internal.Correction>
-7.0549

> <Gold.Goldscore.Internal.Vdw.Weighted>
-6.2705

> <Gold.Goldscore.Internal.Torsion.Weighted>
-2.5490

> <Gold.Goldscore.External.Vdw.Weighted>
67.8912

> <Gold.Goldscore.Internal.HBond.Weighted>
0.0000

> <Gold.Goldscore.External.HBond.Weighted>
0.0000

> <Gold.Goldscore.Internal.Correction.Weighted>
-7.0549

> <Gold.Protein.RotatedTorsions>
[ 3781 1176 1175 1172 ] final -109.17 input   60.00 | X-H torsion
[ 3847 1247 1246 1244 ] final  106.96 input   60.00 | X-H torsion
[ 4507 1931 1930 1928 ] final  118.12 input   60.00 | X-H torsion
[ 3677 1070 1069 1066 ] final -110.20 input   60.00 | X-H torsion
[ 3525  925  924  922 ] final  -88.18 input   59.99 | X-H torsion
[ 4531 1957 1955 1953 ] final  -59.62 input   60.00 | X-H torsion

> <Gold.Protein.ActiveResidues>
 PHE267  PRO268  MET310  ASP335  TRP336  MET339  TYR343  THR360  PRO361  ILE363 
 PRO371  SER374  ILE375  ASN378  PHE381  TYR383  GLN384  PHE387  LEU408  LEU417 
 MET419  LEU428  TYR466  MET469  ASN472  ASP496  VAL498  LEU499  MET503  HIS524 
 TRP525 

> <Gold.Protein.RotatedAtoms>
   -3.4552  -29.7251  -29.1931 H   0  0  0  0  0  0  0  0  0  0  0  0  # atno 3525 bound_to 925 
  -11.5908  -23.6748  -31.4426 H   0  0  0  0  0  0  0  0  0  0  0  0  # atno 3677 bound_to 1070
   -9.5820  -36.3439  -33.8850 H   0  0  0  0  0  0  0  0  0  0  0  0  # atno 3781 bound_to 1176
  -14.3591  -28.4771  -37.6772 H   0  0  0  0  0  0  0  0  0  0  0  0  # atno 3847 bound_to 1247
  -12.4417  -23.9498  -39.3306 H   0  0  0  0  0  0  0  0  0  0  0  0  # atno 4507 bound_to 1931
   -1.9855  -32.2155  -36.8498 H   0  0  0  0  0  0  0  0  0  0  0  0  # atno 4531 bound_to 1957
   -9.6979  -36.9779  -32.3908 LP  0  0  0  0  0  0  0  0  0  0  0  0  # atno 5205 bound_to 1176
  -10.8340  -37.3151  -33.5142 LP  0  0  0  0  0  0  0  0  0  0  0  0  # atno 5206 bound_to 1176
  -15.8589  -28.5652  -37.0521 LP  0  0  0  0  0  0  0  0  0  0  0  0  # atno 5215 bound_to 1247
  -15.3523  -27.1920  -37.7763 LP  0  0  0  0  0  0  0  0  0  0  0  0  # atno 5216 bound_to 1247
  -13.2798  -25.3261  -39.1040 LP  0  0  0  0  0  0  0  0  0  0  0  0  # atno 5217 bound_to 1931
  -13.4777  -24.4627  -40.4758 LP  0  0  0  0  0  0  0  0  0  0  0  0  # atno 5218 bound_to 1931
  -11.4508  -22.2362  -30.6951 LP  0  0  0  0  0  0  0  0  0  0  0  0  # atno 5224 bound_to 1070
  -12.8150  -23.1178  -30.5265 LP  0  0  0  0  0  0  0  0  0  0  0  0  # atno 5225 bound_to 1070

$$$$
IA_28.cdx|SeH_inactivess_minimized|sdf|113|dock8
  -GOLD-   4172121 63D 1   1.00000     0.00000

 36 36  0  0  0  0  0  0  0  0  1 V2000
   -9.1065  -27.2489  -35.1693 C   0  0  0  0  0  0  0  0  0  0  0  0
  -13.7139  -25.7562  -36.8590 C   0  0  0  0  0  0  0  0  0  0  0  0
  -18.0012  -23.4681  -37.9468 C   0  0  0  0  0  0  0  0  0  0  0  0
  -17.7529  -24.7820  -37.2105 C   0  0  0  0  0  0  0  0  0  0  0  0
  -16.6969  -22.7896  -38.3570 C   0  0  0  0  0  0  0  0  0  0  0  0
  -16.8555  -25.7194  -38.0196 C   0  0  0  0  0  0  0  0  0  0  0  0
  -15.8023  -23.7318  -39.1637 C   0  0  0  0  0  0  0  0  0  0  0  0
  -15.5362  -25.0611  -38.4447 C   0  0  0  0  0  0  0  0  0  0  0  0
   -9.5358  -26.0577  -34.3413 C   0  0  0  0  0  0  0  0  0  0  0  0
  -10.6867  -25.2677  -34.9699 C   0  0  0  0  0  0  0  0  0  0  0  0
  -11.9931  -26.0522  -35.0827 C   0  0  0  0  0  0  0  0  0  0  0  0
  -14.6790  -24.8434  -37.2773 N   0  0  0  0  0  0  0  0  0  0  0  0
  -13.0446  -25.3002  -35.7261 N   0  0  0  0  0  0  0  0  0  0  0  0
   -9.5845  -27.5757  -36.2466 O   0  0  0  0  0  0  0  0  0  0  0  0
  -13.4809  -26.8273  -37.4176 O   0  0  0  0  0  0  0  0  0  0  0  0
   -8.0845  -27.9222  -34.5783 O   0  0  0  0  0  0  0  0  0  0  0  0
  -18.6154  -23.6545  -38.8362 H   0  0  0  0  0  0  0  0  0  0  0  0
  -18.5759  -22.7916  -37.3003 H   0  0  0  0  0  0  0  0  0  0  0  0
  -17.2906  -24.5785  -36.2387 H   0  0  0  0  0  0  0  0  0  0  0  0
  -18.7113  -25.2770  -37.0127 H   0  0  0  0  0  0  0  0  0  0  0  0
  -16.9207  -21.8988  -38.9559 H   0  0  0  0  0  0  0  0  0  0  0  0
  -16.1616  -22.4494  -37.4640 H   0  0  0  0  0  0  0  0  0  0  0  0
  -16.6455  -26.6259  -37.4252 H   0  0  0  0  0  0  0  0  0  0  0  0
  -17.4039  -26.0698  -38.9103 H   0  0  0  0  0  0  0  0  0  0  0  0
  -16.2667  -23.9234  -40.1458 H   0  0  0  0  0  0  0  0  0  0  0  0
  -14.8446  -23.2276  -39.3818 H   0  0  0  0  0  0  0  0  0  0  0  0
  -14.9862  -25.7305  -39.1014 H   0  0  0  0  0  0  0  0  0  0  0  0
   -9.8110  -26.4003  -33.3388 H   0  0  0  0  0  0  0  0  0  0  0  0
   -8.6650  -25.3974  -34.2537 H   0  0  0  0  0  0  0  0  0  0  0  0
  -10.8607  -24.3668  -34.3683 H   0  0  0  0  0  0  0  0  0  0  0  0
  -10.3921  -24.9301  -35.9711 H   0  0  0  0  0  0  0  0  0  0  0  0
  -12.3646  -26.3737  -34.1057 H   0  0  0  0  0  0  0  0  0  0  0  0
  -11.8295  -26.9468  -35.6925 H   0  0  0  0  0  0  0  0  0  0  0  0
  -14.7941  -23.9849  -36.7470 H   0  0  0  0  0  0  0  0  0  0  0  0
  -13.2726  -24.3810  -35.3604 H   0  0  0  0  0  0  0  0  0  0  0  0
   -7.7513  -28.6958  -35.0813 H   0  0  0  0  0  0  0  0  0  0  0  0
  1  9  1  0  0  0  0
  1 14  2  0  0  0  0
  1 16  1  0  0  0  0
  2 12  1  0  0  0  0
  2 13  1  0  0  0  0
  2 15  2  0  0  0  0
  3  4  1  0  0  0  0
  3  5  1  0  0  0  0
  4  6  1  0  0  0  0
  5  7  1  0  0  0  0
  6  8  1  0  0  0  0
  7  8  1  0  0  0  0
  8 12  1  0  0  0  0
  9 10  1  0  0  0  0
 10 11  1  0  0  0  0
 11 13  1  0  0  0  0
  3 17  1  0  0  0  0
  3 18  1  0  0  0  0
  4 19  1  0  0  0  0
  4 20  1  0  0  0  0
  5 21  1  0  0  0  0
  5 22  1  0  0  0  0
  6 23  1  0  0  0  0
  6 24  1  0  0  0  0
  7 25  1  0  0  0  0
  7 26  1  0  0  0  0
  8 27  1  0  0  0  0
  9 28  1  0  0  0  0
  9 29  1  0  0  0  0
 10 30  1  0  0  0  0
 10 31  1  0  0  0  0
 11 32  1  0  0  0  0
 11 33  1  0  0  0  0
 12 34  1  0  0  0  0
 13 35  1  0  0  0  0
 16 36  1  0  0  0  0
M  END
> <Name>
IA_28.cdx

> <SourceTag>
IA_28

> <Gold.Version>
5.2

> <Gold.Id.Protein>
6HGV|6HGV_protein|mol2

> <Gold.Goldscore.Fitness>
50.4987

> <Gold.Goldscore.Internal.Vdw>
-2.5705

> <Gold.Goldscore.Internal.Torsion>
-1.7966

> <Gold.Goldscore.External.Vdw>
35.5943

> <Gold.Goldscore.Internal.HBond>
0.0000

> <Gold.Goldscore.External.HBond>
4.7735

> <Gold.Goldscore.Internal.Correction>
-1.1502

> <Gold.Goldscore.Hbonds>
donor molecule, donor type, donor heavy atom, donor atom, acceptor molecule, acceptor atom, score
      P1  H  1247  3847       L1    15  0.03
      L1  H    12    34       P1   853  0.23
      L1  H    13    35       P1   853  0.55

> <Gold.Goldscore.Internal.Vdw.Weighted>
-2.5705

> <Gold.Goldscore.Internal.Torsion.Weighted>
-1.7966

> <Gold.Goldscore.External.Vdw.Weighted>
48.9421

> <Gold.Goldscore.Internal.HBond.Weighted>
0.0000

> <Gold.Goldscore.External.HBond.Weighted>
4.7735

> <Gold.Goldscore.Internal.Correction.Weighted>
-1.1502

> <Gold.Protein.RotatedTorsions>
[ 3781 1176 1175 1172 ] final  -29.84 input   60.00 | X-H torsion
[ 3847 1247 1246 1244 ] final  135.69 input   60.00 | X-H torsion
[ 4507 1931 1930 1928 ] final   97.23 input   60.00 | X-H torsion
[ 3677 1070 1069 1066 ] final  -86.04 input   60.00 | X-H torsion
[ 3525  925  924  922 ] final  -47.88 input   59.99 | X-H torsion
[ 4531 1957 1955 1953 ] final  -79.62 input   60.00 | X-H torsion

> <Gold.Protein.ActiveResidues>
 PHE267  PRO268  MET310  ASP335  TRP336  MET339  TYR343  THR360  PRO361  ILE363 
 PRO371  SER374  ILE375  ASN378  PHE381  TYR383  GLN384  PHE387  LEU408  LEU417 
 MET419  LEU428  TYR466  MET469  ASN472  ASP496  VAL498  LEU499  MET503  HIS524 
 TRP525 

> <Gold.Protein.RotatedAtoms>
   -3.7578  -29.5438  -29.7331 H   0  0  0  0  0  0  0  0  0  0  0  0  # atno 3525 bound_to 925 
  -11.9425  -23.8237  -31.3544 H   0  0  0  0  0  0  0  0  0  0  0  0  # atno 3677 bound_to 1070
  -10.5921  -36.9698  -34.0130 H   0  0  0  0  0  0  0  0  0  0  0  0  # atno 3781 bound_to 1176
  -14.3216  -28.0498  -37.8554 H   0  0  0  0  0  0  0  0  0  0  0  0  # atno 3847 bound_to 1247
  -12.4421  -24.1677  -39.0702 H   0  0  0  0  0  0  0  0  0  0  0  0  # atno 4507 bound_to 1931
   -1.6897  -32.3371  -36.9081 H   0  0  0  0  0  0  0  0  0  0  0  0  # atno 4531 bound_to 1957
   -9.2630  -36.3415  -33.3151 LP  0  0  0  0  0  0  0  0  0  0  0  0  # atno 5205 bound_to 1176
  -10.2517  -37.3211  -32.4609 LP  0  0  0  0  0  0  0  0  0  0  0  0  # atno 5206 bound_to 1176
  -15.4988  -28.8625  -37.0797 LP  0  0  0  0  0  0  0  0  0  0  0  0  # atno 5215 bound_to 1247
  -15.7501  -27.3250  -37.5692 LP  0  0  0  0  0  0  0  0  0  0  0  0  # atno 5216 bound_to 1247
  -13.4796  -25.3837  -39.3754 LP  0  0  0  0  0  0  0  0  0  0  0  0  # atno 5217 bound_to 1931
  -13.2775  -24.1857  -40.4666 LP  0  0  0  0  0  0  0  0  0  0  0  0  # atno 5218 bound_to 1931
  -11.2050  -22.4365  -30.9300 LP  0  0  0  0  0  0  0  0  0  0  0  0  # atno 5224 bound_to 1070
  -12.7066  -22.7676  -30.3803 LP  0  0  0  0  0  0  0  0  0  0  0  0  # atno 5225 bound_to 1070

$$$$
IA_124.cdx|SeH_inactivess_minimized|sdf|25|dock8
  -GOLD-   4172119 53D 1   1.00000     0.00000

 28 28  0  0  0  0  0  0  0  0  1 V2000
   -9.4693  -26.6493  -35.0212 C   0  0  0  0  0  0  0  0  0  0  0  0
   -9.9051  -25.4466  -34.4651 C   0  0  0  0  0  0  0  0  0  0  0  0
  -10.3407  -27.4164  -35.7945 C   0  0  0  0  0  0  0  0  0  0  0  0
  -11.2124  -25.0112  -34.6821 C   0  0  0  0  0  0  0  0  0  0  0  0
  -11.6479  -26.9810  -36.0115 C   0  0  0  0  0  0  0  0  0  0  0  0
  -12.0838  -25.7783  -35.4554 C   0  0  0  0  0  0  0  0  0  0  0  0
  -15.9030  -22.7908  -38.5397 C   0  0  0  0  0  0  0  0  0  0  0  0
  -14.5806  -26.0929  -35.6941 C   0  0  0  0  0  0  0  0  0  0  0  0
  -17.0639  -25.7819  -35.6425 C   0  0  0  0  0  0  0  0  0  0  0  0
  -16.0380  -24.1380  -37.8856 C   0  0  0  0  0  0  0  0  0  0  0  0
  -13.4090  -25.3366  -35.6754 N   0  0  0  0  0  0  0  0  0  0  0  0
  -15.7163  -25.3328  -35.9412 N   0  0  0  0  0  0  0  0  0  0  0  0
  -16.3678  -22.4728  -39.6240 O   0  0  0  0  0  0  0  0  0  0  0  0
  -14.6441  -27.3100  -35.5176 O   0  0  0  0  0  0  0  0  0  0  0  0
  -15.1823  -21.9563  -37.7490 O   0  0  0  0  0  0  0  0  0  0  0  0
  -15.6834  -24.0434  -36.5084 O   0  0  0  0  0  0  0  0  0  0  0  0
   -8.4512  -26.9883  -34.8531 H   0  0  0  0  0  0  0  0  0  0  0  0
   -9.2268  -24.8487  -33.8638 H   0  0  0  0  0  0  0  0  0  0  0  0
  -10.0006  -28.3524  -36.2282 H   0  0  0  0  0  0  0  0  0  0  0  0
  -11.5409  -24.0721  -34.2438 H   0  0  0  0  0  0  0  0  0  0  0  0
  -12.3181  -27.5872  -36.6159 H   0  0  0  0  0  0  0  0  0  0  0  0
  -17.4315  -26.4268  -36.4449 H   0  0  0  0  0  0  0  0  0  0  0  0
  -17.7351  -24.9244  -35.5449 H   0  0  0  0  0  0  0  0  0  0  0  0
  -17.0756  -26.3447  -34.7053 H   0  0  0  0  0  0  0  0  0  0  0  0
  -15.3569  -24.8444  -38.3671 H   0  0  0  0  0  0  0  0  0  0  0  0
  -17.0691  -24.4930  -37.9639 H   0  0  0  0  0  0  0  0  0  0  0  0
  -13.5203  -24.3377  -35.8281 H   0  0  0  0  0  0  0  0  0  0  0  0
  -14.9829  -21.1074  -38.1987 H   0  0  0  0  0  0  0  0  0  0  0  0
  1  2  2  0  0  0  0
  1  3  1  0  0  0  0
  2  4  1  0  0  0  0
  3  5  2  0  0  0  0
  4  6  2  0  0  0  0
  5  6  1  0  0  0  0
  6 11  1  0  0  0  0
  7 10  1  0  0  0  0
  7 13  2  0  0  0  0
  7 15  1  0  0  0  0
  8 11  1  0  0  0  0
  8 12  1  0  0  0  0
  8 14  2  0  0  0  0
  9 12  1  0  0  0  0
 10 16  1  0  0  0  0
 12 16  1  0  0  0  0
  1 17  1  0  0  0  0
  2 18  1  0  0  0  0
  3 19  1  0  0  0  0
  4 20  1  0  0  0  0
  5 21  1  0  0  0  0
  9 22  1  0  0  0  0
  9 23  1  0  0  0  0
  9 24  1  0  0  0  0
 10 25  1  0  0  0  0
 10 26  1  0  0  0  0
 11 27  1  0  0  0  0
 15 28  1  0  0  0  0
M  END
> <Name>
IA_124.cdx

> <SourceTag>
IA_124

> <Gold.Version>
5.2

> <Gold.Id.Protein>
6HGV|6HGV_protein|mol2

> <Gold.Goldscore.Fitness>
47.6018

> <Gold.Goldscore.Internal.Vdw>
-1.0664

> <Gold.Goldscore.Internal.Torsion>
-6.8319

> <Gold.Goldscore.External.Vdw>
35.6481

> <Gold.Goldscore.Internal.HBond>
0.0000

> <Gold.Goldscore.External.HBond>
2.1141

> <Gold.Goldscore.Internal.Correction>
-4.3699

> <Gold.Goldscore.Hbonds>
donor molecule, donor type, donor heavy atom, donor atom, acceptor molecule, acceptor atom, score
      L1  H    11    27       P1   853  0.18
      L1  H    15    28       P1   302  0.50

> <Gold.Goldscore.Internal.Vdw.Weighted>
-1.0664

> <Gold.Goldscore.Internal.Torsion.Weighted>
-6.8319

> <Gold.Goldscore.External.Vdw.Weighted>
49.0161

> <Gold.Goldscore.Internal.HBond.Weighted>
0.0000

> <Gold.Goldscore.External.HBond.Weighted>
2.1141

> <Gold.Goldscore.Internal.Correction.Weighted>
-4.3699

> <Gold.Protein.RotatedTorsions>
[ 3781 1176 1175 1172 ] final -103.90 input   60.00 | X-H torsion
[ 3847 1247 1246 1244 ] final  159.16 input   60.00 | X-H torsion
[ 4507 1931 1930 1928 ] final   32.83 input   60.00 | X-H torsion
[ 3677 1070 1069 1066 ] final -114.99 input   60.00 | X-H torsion
[ 3525  925  924  922 ] final  103.25 input   59.99 | X-H torsion
[ 4531 1957 1955 1953 ] final  140.17 input   60.00 | X-H torsion

> <Gold.Protein.ActiveResidues>
 PHE267  PRO268  MET310  ASP335  TRP336  MET339  TYR343  THR360  PRO361  ILE363 
 PRO371  SER374  ILE375  ASN378  PHE381  TYR383  GLN384  PHE387  LEU408  LEU417 
 MET419  LEU428  TYR466  MET469  ASN472  ASP496  VAL498  LEU499  MET503  HIS524 
 TRP525 

> <Gold.Protein.RotatedAtoms>
   -2.2510  -30.1253  -30.5573 H   0  0  0  0  0  0  0  0  0  0  0  0  # atno 3525 bound_to 925 
  -11.5267  -23.6303  -31.4487 H   0  0  0  0  0  0  0  0  0  0  0  0  # atno 3677 bound_to 1070
   -9.6437  -36.3639  -33.9415 H   0  0  0  0  0  0  0  0  0  0  0  0  # atno 3781 bound_to 1176
  -14.4508  -27.7011  -37.9381 H   0  0  0  0  0  0  0  0  0  0  0  0  # atno 3847 bound_to 1247
  -12.8996  -25.0206  -38.8278 H   0  0  0  0  0  0  0  0  0  0  0  0  # atno 4507 bound_to 1931
   -2.0568  -34.0588  -36.8681 H   0  0  0  0  0  0  0  0  0  0  0  0  # atno 4531 bound_to 1957
   -9.6329  -36.9257  -32.4143 LP  0  0  0  0  0  0  0  0  0  0  0  0  # atno 5205 bound_to 1176
  -10.8369  -37.3471  -33.4338 LP  0  0  0  0  0  0  0  0  0  0  0  0  # atno 5206 bound_to 1176
  -15.1429  -28.9641  -37.1806 LP  0  0  0  0  0  0  0  0  0  0  0  0  # atno 5215 bound_to 1247
  -15.9760  -27.5746  -37.3851 LP  0  0  0  0  0  0  0  0  0  0  0  0  # atno 5216 bound_to 1247
  -13.6808  -24.9374  -40.2529 LP  0  0  0  0  0  0  0  0  0  0  0  0  # atno 5217 bound_to 1931
  -12.6156  -23.7730  -39.8332 LP  0  0  0  0  0  0  0  0  0  0  0  0  # atno 5218 bound_to 1931
  -11.5117  -22.2118  -30.6513 LP  0  0  0  0  0  0  0  0  0  0  0  0  # atno 5224 bound_to 1070
  -12.8186  -23.1870  -30.5641 LP  0  0  0  0  0  0  0  0  0  0  0  0  # atno 5225 bound_to 1070

$$$$
IA_197.cdx|SeH_inactivess_minimized|sdf|96|dock2
  -GOLD-   4172120333D 1   1.00000     0.00000

 28 29  0  0  0  0  0  0  0  0  1 V2000
   -6.3075  -29.8323  -35.4452 C   0  0  0  0  0  0  0  0  0  0  0  0
  -11.3996  -33.1974  -34.6035 C   0  0  0  0  0  0  0  0  0  0  0  0
  -11.3987  -25.2175  -35.3385 C   0  0  0  0  0  0  0  0  0  0  0  0
  -11.7196  -32.2545  -33.6267 C   0  0  0  0  0  0  0  0  0  0  0  0
  -10.5510  -32.8516  -35.6552 C   0  0  0  0  0  0  0  0  0  0  0  0
  -10.4292  -25.1107  -34.3413 C   0  0  0  0  0  0  0  0  0  0  0  0
  -11.2807  -26.1977  -36.3239 C   0  0  0  0  0  0  0  0  0  0  0  0
  -11.1909  -30.9659  -33.7015 C   0  0  0  0  0  0  0  0  0  0  0  0
  -10.0224  -31.5630  -35.7300 C   0  0  0  0  0  0  0  0  0  0  0  0
   -9.3416  -25.9840  -34.3297 C   0  0  0  0  0  0  0  0  0  0  0  0
  -10.1931  -27.0709  -36.3122 C   0  0  0  0  0  0  0  0  0  0  0  0
  -10.3423  -30.6201  -34.7532 C   0  0  0  0  0  0  0  0  0  0  0  0
   -9.2236  -26.9641  -35.3151 C   0  0  0  0  0  0  0  0  0  0  0  0
   -8.4466  -29.1833  -35.1076 C   0  0  0  0  0  0  0  0  0  0  0  0
   -5.2075  -29.5513  -35.6854 N   0  0  0  0  0  0  0  0  0  0  0  0
   -7.5816  -30.1468  -35.1712 N   0  0  0  0  0  0  0  0  0  0  0  0
   -9.8276  -29.3624  -34.8276 O   0  0  0  0  0  0  0  0  0  0  0  0
   -8.1312  -27.8397  -35.3048 O   0  0  0  0  0  0  0  0  0  0  0  0
  -11.8106  -34.2010  -34.5452 H   0  0  0  0  0  0  0  0  0  0  0  0
  -12.2460  -24.5381  -35.3475 H   0  0  0  0  0  0  0  0  0  0  0  0
  -12.3805  -32.5235  -32.8077 H   0  0  0  0  0  0  0  0  0  0  0  0
  -10.3022  -33.5865  -36.4154 H   0  0  0  0  0  0  0  0  0  0  0  0
  -10.5209  -24.3474  -33.5740 H   0  0  0  0  0  0  0  0  0  0  0  0
  -12.0362  -26.2804  -37.1000 H   0  0  0  0  0  0  0  0  0  0  0  0
  -11.4453  -30.2356  -32.9382 H   0  0  0  0  0  0  0  0  0  0  0  0
   -9.3633  -31.2988  -36.5525 H   0  0  0  0  0  0  0  0  0  0  0  0
   -8.5891  -25.8945  -33.5510 H   0  0  0  0  0  0  0  0  0  0  0  0
  -10.1054  -27.8314  -37.0835 H   0  0  0  0  0  0  0  0  0  0  0  0
  1 15  3  0  0  0  0
  1 16  1  0  0  0  0
  2  4  2  0  0  0  0
  2  5  1  0  0  0  0
  3  6  2  0  0  0  0
  3  7  1  0  0  0  0
  4  8  1  0  0  0  0
  5  9  2  0  0  0  0
  6 10  1  0  0  0  0
  7 11  2  0  0  0  0
  8 12  2  0  0  0  0
  9 12  1  0  0  0  0
 10 13  2  0  0  0  0
 11 13  1  0  0  0  0
 12 17  1  0  0  0  0
 13 18  1  0  0  0  0
 14 16  2  0  0  0  0
 14 17  1  0  0  0  0
 14 18  1  0  0  0  0
  2 19  1  0  0  0  0
  3 20  1  0  0  0  0
  4 21  1  0  0  0  0
  5 22  1  0  0  0  0
  6 23  1  0  0  0  0
  7 24  1  0  0  0  0
  8 25  1  0  0  0  0
  9 26  1  0  0  0  0
 10 27  1  0  0  0  0
 11 28  1  0  0  0  0
M  END
> <Name>
IA_197.cdx

> <SourceTag>
IA_197

> <Gold.Version>
5.2

> <Gold.Id.Protein>
6HGV|6HGV_protein|mol2

> <Gold.Goldscore.Fitness>
51.4206

> <Gold.Goldscore.Internal.Vdw>
0.4040

> <Gold.Goldscore.Internal.Torsion>
-3.4719

> <Gold.Goldscore.External.Vdw>
36.0699

> <Gold.Goldscore.Internal.HBond>
0.0000

> <Gold.Goldscore.External.HBond>
2.0660

> <Gold.Goldscore.Internal.Correction>
-2.8264

> <Gold.Goldscore.Hbonds>
donor molecule, donor type, donor heavy atom, donor atom, acceptor molecule, acceptor atom, score
      P1  H  1256  3854       L1    17  0.25
      P1  H  1994  4571       L1    15  0.79

> <Gold.Goldscore.Internal.Vdw.Weighted>
0.4040

> <Gold.Goldscore.Internal.Torsion.Weighted>
-3.4719

> <Gold.Goldscore.External.Vdw.Weighted>
49.5961

> <Gold.Goldscore.Internal.HBond.Weighted>
0.0000

> <Gold.Goldscore.External.HBond.Weighted>
2.0660

> <Gold.Goldscore.Internal.Correction.Weighted>
-2.8264

> <Gold.Protein.RotatedTorsions>
[ 3781 1176 1175 1172 ] final  -77.12 input   60.00 | X-H torsion
[ 3847 1247 1246 1244 ] final  136.76 input   60.00 | X-H torsion
[ 4507 1931 1930 1928 ] final   52.90 input   60.00 | X-H torsion
[ 3677 1070 1069 1066 ] final -115.31 input   60.00 | X-H torsion
[ 3525  925  924  922 ] final   77.52 input   59.99 | X-H torsion
[ 4531 1957 1955 1953 ] final   -0.34 input   60.00 | X-H torsion

> <Gold.Protein.ActiveResidues>
 PHE267  PRO268  MET310  ASP335  TRP336  MET339  TYR343  THR360  PRO361  ILE363 
 PRO371  SER374  ILE375  ASN378  PHE381  TYR383  GLN384  PHE387  LEU408  LEU417 
 MET419  LEU428  TYR466  MET469  ASN472  ASP496  VAL498  LEU499  MET503  HIS524 
 TRP525 

> <Gold.Protein.RotatedAtoms>
   -2.5537  -29.9712  -30.7988 H   0  0  0  0  0  0  0  0  0  0  0  0  # atno 3525 bound_to 925 
  -11.5226  -23.6272  -31.4490 H   0  0  0  0  0  0  0  0  0  0  0  0  # atno 3677 bound_to 1070
   -9.9969  -36.5281  -34.1323 H   0  0  0  0  0  0  0  0  0  0  0  0  # atno 3781 bound_to 1176
  -14.3244  -28.0333  -37.8606 H   0  0  0  0  0  0  0  0  0  0  0  0  # atno 3847 bound_to 1247
  -12.7000  -24.7646  -38.7944 H   0  0  0  0  0  0  0  0  0  0  0  0  # atno 4507 bound_to 1931
   -2.8532  -32.4967  -36.6897 H   0  0  0  0  0  0  0  0  0  0  0  0  # atno 4531 bound_to 1957
   -9.3654  -36.6632  -32.6387 LP  0  0  0  0  0  0  0  0  0  0  0  0  # atno 5205 bound_to 1176
  -10.7487  -37.4443  -33.0172 LP  0  0  0  0  0  0  0  0  0  0  0  0  # atno 5206 bound_to 1176
  -15.4833  -28.8702  -37.0829 LP  0  0  0  0  0  0  0  0  0  0  0  0  # atno 5215 bound_to 1247
  -15.7628  -27.3339  -37.5608 LP  0  0  0  0  0  0  0  0  0  0  0  0  # atno 5216 bound_to 1247
  -13.6998  -25.1632  -40.0148 LP  0  0  0  0  0  0  0  0  0  0  0  0  # atno 5217 bound_to 1931
  -12.7976  -23.8050  -40.1050 LP  0  0  0  0  0  0  0  0  0  0  0  0  # atno 5218 bound_to 1931
  -11.5158  -22.2104  -30.6485 LP  0  0  0  0  0  0  0  0  0  0  0  0  # atno 5224 bound_to 1070
  -12.8187  -23.1915  -30.5666 LP  0  0  0  0  0  0  0  0  0  0  0  0  # atno 5225 bound_to 1070

$$$$
IA_52.cdx|SeH_inactivess_minimized|sdf|137|dock4
  -GOLD-   4172121513D 1   1.00000     0.00000

 18 18  0  0  0  0  0  0  0  0  1 V2000
   -9.3887  -26.8904  -34.6161 C   0  0  0  0  0  0  0  0  0  0  0  0
   -9.9352  -25.7630  -34.0033 C   0  0  0  0  0  0  0  0  0  0  0  0
   -9.8118  -27.2653  -35.8913 C   0  0  0  0  0  0  0  0  0  0  0  0
  -10.9052  -25.0103  -34.6655 C   0  0  0  0  0  0  0  0  0  0  0  0
  -10.7817  -26.5127  -36.5536 C   0  0  0  0  0  0  0  0  0  0  0  0
  -11.3284  -25.3852  -35.9407 C   0  0  0  0  0  0  0  0  0  0  0  0
  -13.3593  -25.0858  -37.4042 C   0  0  0  0  0  0  0  0  0  0  0  0
  -14.1184  -24.0317  -37.8944 N   0  0  0  0  0  0  0  0  0  0  0  0
  -12.2984  -24.6322  -36.6030 N   0  0  0  0  0  0  0  0  0  0  0  0
  -13.6315  -26.2531  -37.6727 O   0  0  0  0  0  0  0  0  0  0  0  0
   -8.6328  -27.4763  -34.1011 H   0  0  0  0  0  0  0  0  0  0  0  0
   -9.6054  -25.4703  -33.0108 H   0  0  0  0  0  0  0  0  0  0  0  0
   -9.3853  -28.1428  -36.3687 H   0  0  0  0  0  0  0  0  0  0  0  0
  -11.3239  -24.1335  -34.1780 H   0  0  0  0  0  0  0  0  0  0  0  0
  -11.1038  -26.8144  -37.5472 H   0  0  0  0  0  0  0  0  0  0  0  0
  -14.9161  -24.2324  -38.4882 H   0  0  0  0  0  0  0  0  0  0  0  0
  -13.8974  -23.0663  -37.6750 H   0  0  0  0  0  0  0  0  0  0  0  0
  -12.2427  -23.6135  -36.5006 H   0  0  0  0  0  0  0  0  0  0  0  0
  1  2  2  0  0  0  0
  1  3  1  0  0  0  0
  2  4  1  0  0  0  0
  3  5  2  0  0  0  0
  4  6  2  0  0  0  0
  5  6  1  0  0  0  0
  6  9  1  0  0  0  0
  7  8  1  0  0  0  0
  7  9  1  0  0  0  0
  7 10  2  0  0  0  0
  1 11  1  0  0  0  0
  2 12  1  0  0  0  0
  3 13  1  0  0  0  0
  4 14  1  0  0  0  0
  5 15  1  0  0  0  0
  8 16  1  0  0  0  0
  8 17  1  0  0  0  0
  9 18  1  0  0  0  0
M  END
> <Name>
IA_52.cdx

> <SourceTag>
IA_52

> <Gold.Version>
5.2

> <Gold.Id.Protein>
6HGV|6HGV_protein|mol2

> <Gold.Goldscore.Fitness>
39.7750

> <Gold.Goldscore.Internal.Vdw>
0.2838

> <Gold.Goldscore.Internal.Torsion>
-2.5428

> <Gold.Goldscore.External.Vdw>
25.0678

> <Gold.Goldscore.Internal.HBond>
0.0000

> <Gold.Goldscore.External.HBond>
5.5875

> <Gold.Goldscore.Internal.Correction>
-1.9783

> <Gold.Goldscore.Hbonds>
donor molecule, donor type, donor heavy atom, donor atom, acceptor molecule, acceptor atom, score
      P1  H  1247  3847       L1    10  0.56
      L1  H     8    17       P1   854  0.16
      L1  H     9    18       P1   854  0.58

> <Gold.Goldscore.Internal.Vdw.Weighted>
0.2838

> <Gold.Goldscore.Internal.Torsion.Weighted>
-2.5428

> <Gold.Goldscore.External.Vdw.Weighted>
34.4682

> <Gold.Goldscore.Internal.HBond.Weighted>
0.0000

> <Gold.Goldscore.External.HBond.Weighted>
5.5875

> <Gold.Goldscore.Internal.Correction.Weighted>
-1.9783

> <Gold.Protein.RotatedTorsions>
[ 3781 1176 1175 1172 ] final  -97.14 input   60.00 | X-H torsion
[ 3847 1247 1246 1244 ] final -174.70 input   60.00 | X-H torsion
[ 4507 1931 1930 1928 ] final -179.28 input   60.00 | X-H torsion
[ 3677 1070 1069 1066 ] final -114.50 input   60.00 | X-H torsion
[ 3525  925  924  922 ] final -136.25 input   59.99 | X-H torsion
[ 4531 1957 1955 1953 ] final  121.22 input   60.00 | X-H torsion

> <Gold.Protein.ActiveResidues>
 PHE267  PRO268  MET310  ASP335  TRP336  MET339  TYR343  THR360  PRO361  ILE363 
 PRO371  SER374  ILE375  ASN378  PHE381  TYR383  GLN384  PHE387  LEU408  LEU417 
 MET419  LEU428  TYR466  MET469  ASN472  ASP496  VAL498  LEU499  MET503  HIS524 
 TRP525 

> <Gold.Protein.RotatedAtoms>
   -2.7796  -30.0352  -29.0226 H   0  0  0  0  0  0  0  0  0  0  0  0  # atno 3525 bound_to 925 
  -11.5332  -23.6351  -31.4483 H   0  0  0  0  0  0  0  0  0  0  0  0  # atno 3677 bound_to 1070
   -9.7277  -36.3959  -34.0056 H   0  0  0  0  0  0  0  0  0  0  0  0  # atno 3781 bound_to 1176
  -14.7366  -27.3889  -37.9453 H   0  0  0  0  0  0  0  0  0  0  0  0  # atno 3847 bound_to 1247
  -12.8782  -23.8499  -40.1941 H   0  0  0  0  0  0  0  0  0  0  0  0  # atno 4507 bound_to 1931
   -2.3595  -34.0499  -36.8104 H   0  0  0  0  0  0  0  0  0  0  0  0  # atno 4531 bound_to 1957
   -9.5545  -36.8582  -32.4550 LP  0  0  0  0  0  0  0  0  0  0  0  0  # atno 5205 bound_to 1176
  -10.8307  -37.3824  -33.3286 LP  0  0  0  0  0  0  0  0  0  0  0  0  # atno 5206 bound_to 1176
  -14.7580  -28.9049  -37.3543 LP  0  0  0  0  0  0  0  0  0  0  0  0  # atno 5215 bound_to 1247
  -16.0729  -27.9483  -37.2041 LP  0  0  0  0  0  0  0  0  0  0  0  0  # atno 5216 bound_to 1247
  -12.6317  -24.6563  -38.8023 LP  0  0  0  0  0  0  0  0  0  0  0  0  # atno 5217 bound_to 1931
  -13.6862  -25.2331  -39.9079 LP  0  0  0  0  0  0  0  0  0  0  0  0  # atno 5218 bound_to 1931
  -11.5053  -22.2141  -30.6557 LP  0  0  0  0  0  0  0  0  0  0  0  0  # atno 5224 bound_to 1070
  -12.8185  -23.1799  -30.5601 LP  0  0  0  0  0  0  0  0  0  0  0  0  # atno 5225 bound_to 1070

$$$$
IA_67.mol|SeH_inactivess_minimized|sdf|110|dock9
  -GOLD-   4172120583D 1   1.00000     0.00000

 35 35  0  0  0  0  0  0  0  0  1 V2000
   -8.4510  -28.7619  -34.4915 C   0  0  0  0  0  0  0  0  0  0  0  0
  -11.0797  -24.8413  -35.3172 C   0  0  0  0  0  0  0  0  0  0  0  0
  -11.1950  -25.3059  -33.8681 C   0  0  0  0  0  0  0  0  0  0  0  0
  -11.4302  -25.9582  -36.2963 C   0  0  0  0  0  0  0  0  0  0  0  0
  -10.3615  -26.5601  -33.6103 C   0  0  0  0  0  0  0  0  0  0  0  0
  -10.5964  -27.2127  -36.0416 C   0  0  0  0  0  0  0  0  0  0  0  0
  -10.7247  -27.6828  -34.5885 C   0  0  0  0  0  0  0  0  0  0  0  0
  -10.7306  -30.1731  -32.5153 C   0  0  0  0  0  0  0  0  0  0  0  0
   -5.2053  -31.2224  -35.1952 C   0  0  0  0  0  0  0  0  0  0  0  0
  -10.5421  -30.0822  -33.9914 C   0  0  0  0  0  0  0  0  0  0  0  0
   -6.0451  -29.9618  -35.1150 C   0  0  0  0  0  0  0  0  0  0  0  0
   -9.8589  -28.8383  -34.3619 N   0  0  0  0  0  0  0  0  0  0  0  0
   -7.8327  -27.7451  -34.7990 O   0  0  0  0  0  0  0  0  0  0  0  0
   -7.5730  -30.2744  -34.2040 S   0  0  0  0  0  0  0  0  0  0  0  0
  -11.7416  -23.9840  -35.4833 H   0  0  0  0  0  0  0  0  0  0  0  0
  -10.0559  -24.4969  -35.5089 H   0  0  0  0  0  0  0  0  0  0  0  0
  -10.8698  -24.5034  -33.1967 H   0  0  0  0  0  0  0  0  0  0  0  0
  -12.2465  -25.5129  -33.6335 H   0  0  0  0  0  0  0  0  0  0  0  0
  -12.4953  -26.2036  -36.2045 H   0  0  0  0  0  0  0  0  0  0  0  0
  -11.2696  -25.6116  -37.3233 H   0  0  0  0  0  0  0  0  0  0  0  0
   -9.2950  -26.3153  -33.7006 H   0  0  0  0  0  0  0  0  0  0  0  0
  -10.5164  -26.8960  -32.5777 H   0  0  0  0  0  0  0  0  0  0  0  0
  -10.9167  -28.0093  -36.7242 H   0  0  0  0  0  0  0  0  0  0  0  0
   -9.5439  -27.0066  -36.2769 H   0  0  0  0  0  0  0  0  0  0  0  0
  -11.7377  -28.0250  -34.3987 H   0  0  0  0  0  0  0  0  0  0  0  0
  -11.3318  -29.3351  -32.1458 H   0  0  0  0  0  0  0  0  0  0  0  0
  -11.2176  -31.1153  -32.2413 H   0  0  0  0  0  0  0  0  0  0  0  0
   -9.7562  -30.1369  -32.0135 H   0  0  0  0  0  0  0  0  0  0  0  0
   -4.3019  -31.0662  -35.7946 H   0  0  0  0  0  0  0  0  0  0  0  0
   -4.9076  -31.5717  -34.2007 H   0  0  0  0  0  0  0  0  0  0  0  0
   -5.7814  -32.0243  -35.6688 H   0  0  0  0  0  0  0  0  0  0  0  0
  -11.5090  -30.0972  -34.5031 H   0  0  0  0  0  0  0  0  0  0  0  0
   -9.9367  -30.9167  -34.3573 H   0  0  0  0  0  0  0  0  0  0  0  0
   -6.2993  -29.6109  -36.1197 H   0  0  0  0  0  0  0  0  0  0  0  0
   -5.4890  -29.1675  -34.6079 H   0  0  0  0  0  0  0  0  0  0  0  0
  1 12  1  0  0  0  0
  1 13  2  0  0  0  0
  1 14  1  0  0  0  0
  2  3  1  0  0  0  0
  2  4  1  0  0  0  0
  3  5  1  0  0  0  0
  4  6  1  0  0  0  0
  5  7  1  0  0  0  0
  6  7  1  0  0  0  0
  7 12  1  0  0  0  0
  8 10  1  0  0  0  0
  9 11  1  0  0  0  0
 10 12  1  0  0  0  0
 11 14  1  0  0  0  0
  2 15  1  0  0  0  0
  2 16  1  0  0  0  0
  3 17  1  0  0  0  0
  3 18  1  0  0  0  0
  4 19  1  0  0  0  0
  4 20  1  0  0  0  0
  5 21  1  0  0  0  0
  5 22  1  0  0  0  0
  6 23  1  0  0  0  0
  6 24  1  0  0  0  0
  7 25  1  0  0  0  0
  8 26  1  0  0  0  0
  8 27  1  0  0  0  0
  8 28  1  0  0  0  0
  9 29  1  0  0  0  0
  9 30  1  0  0  0  0
  9 31  1  0  0  0  0
 10 32  1  0  0  0  0
 10 33  1  0  0  0  0
 11 34  1  0  0  0  0
 11 35  1  0  0  0  0
M  END
> <Name>
IA_67.mol

> <SourceTag>
IA_212

> <Gold.Version>
5.2

> <Gold.Id.Protein>
6HGV|6HGV_protein|mol2

> <Gold.Goldscore.Fitness>
45.1349

> <Gold.Goldscore.Internal.Vdw>
-6.1405

> <Gold.Goldscore.Internal.Torsion>
-1.5791

> <Gold.Goldscore.External.Vdw>
33.0907

> <Gold.Goldscore.Internal.HBond>
0.0000

> <Gold.Goldscore.External.HBond>
0.0000

> <Gold.Goldscore.Internal.Correction>
-7.3548

> <Gold.Goldscore.Internal.Vdw.Weighted>
-6.1405

> <Gold.Goldscore.Internal.Torsion.Weighted>
-1.5791

> <Gold.Goldscore.External.Vdw.Weighted>
45.4997

> <Gold.Goldscore.Internal.HBond.Weighted>
0.0000

> <Gold.Goldscore.External.HBond.Weighted>
0.0000

> <Gold.Goldscore.Internal.Correction.Weighted>
-7.3548

> <Gold.Protein.RotatedTorsions>
[ 3781 1176 1175 1172 ] final   63.45 input   60.00 | X-H torsion
[ 3847 1247 1246 1244 ] final  138.09 input   60.00 | X-H torsion
[ 4507 1931 1930 1928 ] final  100.19 input   60.00 | X-H torsion
[ 3677 1070 1069 1066 ] final  -58.13 input   60.00 | X-H torsion
[ 3525  925  924  922 ] final   31.15 input   59.99 | X-H torsion
[ 4531 1957 1955 1953 ] final   55.12 input   60.00 | X-H torsion

> <Gold.Protein.ActiveResidues>
 PHE267  PRO268  MET310  ASP335  TRP336  MET339  TYR343  THR360  PRO361  ILE363 
 PRO371  SER374  ILE375  ASN378  PHE381  TYR383  GLN384  PHE387  LEU408  LEU417 
 MET419  LEU428  TYR466  MET469  ASN472  ASP496  VAL498  LEU499  MET503  HIS524 
 TRP525 

> <Gold.Protein.RotatedAtoms>
   -3.2297  -29.6771  -30.7926 H   0  0  0  0  0  0  0  0  0  0  0  0  # atno 3525 bound_to 925 
  -12.3463  -23.8181  -31.1527 H   0  0  0  0  0  0  0  0  0  0  0  0  # atno 3677 bound_to 1070
  -10.5700  -37.4344  -32.7334 H   0  0  0  0  0  0  0  0  0  0  0  0  # atno 3781 bound_to 1176
  -14.3284  -28.0128  -37.8669 H   0  0  0  0  0  0  0  0  0  0  0  0  # atno 3847 bound_to 1247
  -12.4370  -24.1327  -39.1034 H   0  0  0  0  0  0  0  0  0  0  0  0  # atno 4507 bound_to 1931
   -3.0768  -33.3383  -36.6617 H   0  0  0  0  0  0  0  0  0  0  0  0  # atno 4531 bound_to 1957
  -10.2810  -36.7046  -34.1588 LP  0  0  0  0  0  0  0  0  0  0  0  0  # atno 5205 bound_to 1176
   -9.2560  -36.4901  -32.9058 LP  0  0  0  0  0  0  0  0  0  0  0  0  # atno 5206 bound_to 1176
  -15.4637  -28.8794  -37.0870 LP  0  0  0  0  0  0  0  0  0  0  0  0  # atno 5215 bound_to 1247
  -15.7784  -27.3454  -37.5504 LP  0  0  0  0  0  0  0  0  0  0  0  0  # atno 5216 bound_to 1247
  -13.4540  -25.3819  -39.3339 LP  0  0  0  0  0  0  0  0  0  0  0  0  # atno 5217 bound_to 1931
  -13.3083  -24.2227  -40.4748 LP  0  0  0  0  0  0  0  0  0  0  0  0  # atno 5218 bound_to 1931
  -11.0856  -22.7899  -31.1900 LP  0  0  0  0  0  0  0  0  0  0  0  0  # atno 5224 bound_to 1070
  -12.4194  -22.4198  -30.3235 LP  0  0  0  0  0  0  0  0  0  0  0  0  # atno 5225 bound_to 1070

$$$$
IA_178.cdx|SeH_inactivess_minimized|sdf|79|dock3
  -GOLD-   4172120213D 1   1.00000     0.00000

 23 24  0  0  0  0  0  0  0  0  1 V2000
  -16.1811  -25.7111  -35.9226 C   0  0  0  0  0  0  0  0  0  0  0  0
  -16.2762  -24.0770  -37.6997 C   0  0  0  0  0  0  0  0  0  0  0  0
  -14.7874  -25.6900  -35.9778 C   0  0  0  0  0  0  0  0  0  0  0  0
  -14.8826  -24.0558  -37.7548 C   0  0  0  0  0  0  0  0  0  0  0  0
  -16.9254  -24.9047  -36.7836 C   0  0  0  0  0  0  0  0  0  0  0  0
  -14.1382  -24.8623  -36.8939 C   0  0  0  0  0  0  0  0  0  0  0  0
  -19.2167  -24.8223  -37.7776 C   0  0  0  0  0  0  0  0  0  0  0  0
  -20.4699  -24.8857  -37.3178 C   0  0  0  0  0  0  0  0  0  0  0  0
  -19.0875  -25.0652  -35.5109 C   0  0  0  0  0  0  0  0  0  0  0  0
  -21.6004  -25.1361  -35.1069 C   0  0  0  0  0  0  0  0  0  0  0  0
  -18.3127  -24.9255  -36.7284 N   0  0  0  0  0  0  0  0  0  0  0  0
  -20.4413  -25.0319  -35.9571 N   0  0  0  0  0  0  0  0  0  0  0  0
  -18.6702  -25.1843  -34.3681 O   0  0  0  0  0  0  0  0  0  0  0  0
  -12.4185  -24.8362  -36.9616 Cl  0  0  0  0  0  0  0  0  0  0  0  0
  -16.6767  -26.3599  -35.2053 H   0  0  0  0  0  0  0  0  0  0  0  0
  -16.8465  -23.4446  -38.3752 H   0  0  0  0  0  0  0  0  0  0  0  0
  -14.2201  -26.3233  -35.3009 H   0  0  0  0  0  0  0  0  0  0  0  0
  -14.3898  -23.4063  -38.4736 H   0  0  0  0  0  0  0  0  0  0  0  0
  -18.8802  -24.7088  -38.7961 H   0  0  0  0  0  0  0  0  0  0  0  0
  -21.3959  -24.8368  -37.8673 H   0  0  0  0  0  0  0  0  0  0  0  0
  -21.2927  -25.2361  -34.0628 H   0  0  0  0  0  0  0  0  0  0  0  0
  -22.1949  -26.0109  -35.3841 H   0  0  0  0  0  0  0  0  0  0  0  0
  -22.2234  -24.2432  -35.2062 H   0  0  0  0  0  0  0  0  0  0  0  0
  1  3  1  0  0  0  0
  1  5  2  0  0  0  0
  2  4  2  0  0  0  0
  2  5  1  0  0  0  0
  3  6  2  0  0  0  0
  4  6  1  0  0  0  0
  5 11  1  0  0  0  0
  6 14  1  0  0  0  0
  7  8  2  0  0  0  0
  7 11  1  0  0  0  0
  8 12  1  0  0  0  0
  9 11  1  0  0  0  0
  9 12  1  0  0  0  0
  9 13  2  0  0  0  0
 10 12  1  0  0  0  0
  1 15  1  0  0  0  0
  2 16  1  0  0  0  0
  3 17  1  0  0  0  0
  4 18  1  0  0  0  0
  7 19  1  0  0  0  0
  8 20  1  0  0  0  0
 10 21  1  0  0  0  0
 10 22  1  0  0  0  0
 10 23  1  0  0  0  0
M  END
> <Name>
IA_178.cdx

> <SourceTag>
IA_178

> <Gold.Version>
5.2

> <Gold.Id.Protein>
6HGV|6HGV_protein|mol2

> <Gold.Goldscore.Fitness>
41.7694

> <Gold.Goldscore.Internal.Vdw>
0.2913

> <Gold.Goldscore.Internal.Torsion>
-2.8584

> <Gold.Goldscore.External.Vdw>
30.2876

> <Gold.Goldscore.Internal.HBond>
0.0000

> <Gold.Goldscore.External.HBond>
0.1574

> <Gold.Goldscore.Internal.Correction>
-2.5336

> <Gold.Goldscore.Hbonds>
donor molecule, donor type, donor heavy atom, donor atom, acceptor molecule, acceptor atom, score
      P1  H  2205  4797       L1    13  0.08

> <Gold.Goldscore.Internal.Vdw.Weighted>
0.2913

> <Gold.Goldscore.Internal.Torsion.Weighted>
-2.8584

> <Gold.Goldscore.External.Vdw.Weighted>
41.6455

> <Gold.Goldscore.Internal.HBond.Weighted>
0.0000

> <Gold.Goldscore.External.HBond.Weighted>
0.1574

> <Gold.Goldscore.Internal.Correction.Weighted>
-2.5336

> <Gold.Protein.RotatedTorsions>
[ 3781 1176 1175 1172 ] final  161.47 input   60.00 | X-H torsion
[ 3847 1247 1246 1244 ] final  149.72 input   60.00 | X-H torsion
[ 4507 1931 1930 1928 ] final  -90.96 input   60.00 | X-H torsion
[ 3677 1070 1069 1066 ] final -111.57 input   60.00 | X-H torsion
[ 3525  925  924  922 ] final -141.58 input   59.99 | X-H torsion
[ 4531 1957 1955 1953 ] final  148.27 input   60.00 | X-H torsion

> <Gold.Protein.ActiveResidues>
 PHE267  PRO268  MET310  ASP335  TRP336  MET339  TYR343  THR360  PRO361  ILE363 
 PRO371  SER374  ILE375  ASN378  PHE381  TYR383  GLN384  PHE387  LEU408  LEU417 
 MET419  LEU428  TYR466  MET469  ASN472  ASP496  VAL498  LEU499  MET503  HIS524 
 TRP525 

> <Gold.Protein.RotatedAtoms>
   -2.7015  -30.0674  -29.0432 H   0  0  0  0  0  0  0  0  0  0  0  0  # atno 3525 bound_to 925 
  -11.5722  -23.6626  -31.4447 H   0  0  0  0  0  0  0  0  0  0  0  0  # atno 3677 bound_to 1070
   -9.3797  -36.6797  -32.6281 H   0  0  0  0  0  0  0  0  0  0  0  0  # atno 3781 bound_to 1176
  -14.3824  -27.8370  -37.9129 H   0  0  0  0  0  0  0  0  0  0  0  0  # atno 3847 bound_to 1247
  -13.6626  -24.8880  -40.2866 H   0  0  0  0  0  0  0  0  0  0  0  0  # atno 4507 bound_to 1931
   -1.9297  -34.0316  -36.8918 H   0  0  0  0  0  0  0  0  0  0  0  0  # atno 4531 bound_to 1957
  -10.7574  -37.4421  -33.0386 LP  0  0  0  0  0  0  0  0  0  0  0  0  # atno 5205 bound_to 1176
   -9.9782  -36.5127  -34.1321 LP  0  0  0  0  0  0  0  0  0  0  0  0  # atno 5206 bound_to 1176
  -15.2886  -28.9404  -37.1324 LP  0  0  0  0  0  0  0  0  0  0  0  0  # atno 5215 bound_to 1247
  -15.8991  -27.4614  -37.4586 LP  0  0  0  0  0  0  0  0  0  0  0  0  # atno 5216 bound_to 1247
  -12.5868  -23.7780  -39.7782 LP  0  0  0  0  0  0  0  0  0  0  0  0  # atno 5217 bound_to 1931
  -12.9412  -25.0659  -38.8389 LP  0  0  0  0  0  0  0  0  0  0  0  0  # atno 5218 bound_to 1931
  -11.4678  -22.2287  -30.6824 LP  0  0  0  0  0  0  0  0  0  0  0  0  # atno 5224 bound_to 1070
  -12.8166  -23.1377  -30.5370 LP  0  0  0  0  0  0  0  0  0  0  0  0  # atno 5225 bound_to 1070

$$$$
IA_130.cdx|SeH_inactivess_minimized|sdf|32|dock7
  -GOLD-   4172119163D 1   1.00000     0.00000

 30 30  0  0  0  0  0  0  0  0  1 V2000
  -16.7658  -25.2400  -36.1783 C   0  0  0  0  0  0  0  0  0  0  0  0
  -18.1334  -24.9858  -36.0755 C   0  0  0  0  0  0  0  0  0  0  0  0
  -16.6920  -24.0041  -38.2530 C   0  0  0  0  0  0  0  0  0  0  0  0
  -16.0450  -24.7492  -37.2671 C   0  0  0  0  0  0  0  0  0  0  0  0
  -18.7803  -24.2407  -37.0614 C   0  0  0  0  0  0  0  0  0  0  0  0
  -18.0596  -23.7498  -38.1501 C   0  0  0  0  0  0  0  0  0  0  0  0
   -9.9849  -26.8325  -33.5117 C   0  0  0  0  0  0  0  0  0  0  0  0
  -13.7911  -25.4511  -36.3686 C   0  0  0  0  0  0  0  0  0  0  0  0
   -9.8052  -25.4600  -34.1226 C   0  0  0  0  0  0  0  0  0  0  0  0
  -10.9914  -25.0224  -34.9859 C   0  0  0  0  0  0  0  0  0  0  0  0
  -11.3765  -26.0263  -36.0717 C   0  0  0  0  0  0  0  0  0  0  0  0
  -14.6582  -25.0066  -37.3706 N   0  0  0  0  0  0  0  0  0  0  0  0
  -12.4880  -25.5858  -36.8699 N   0  0  0  0  0  0  0  0  0  0  0  0
   -9.3894  -27.8454  -33.8507 O   0  0  0  0  0  0  0  0  0  0  0  0
  -14.0861  -25.7007  -35.2023 O   0  0  0  0  0  0  0  0  0  0  0  0
  -10.8905  -26.8102  -32.4986 O   0  0  0  0  0  0  0  0  0  0  0  0
  -20.4766  -23.9624  -36.8787 Cl  0  0  0  0  0  0  0  0  0  0  0  0
  -18.8050  -22.8224  -39.4044 Cl  0  0  0  0  0  0  0  0  0  0  0  0
  -16.2711  -25.8204  -35.4038 H   0  0  0  0  0  0  0  0  0  0  0  0
  -18.6789  -25.3749  -35.2194 H   0  0  0  0  0  0  0  0  0  0  0  0
  -16.1246  -23.6248  -39.1006 H   0  0  0  0  0  0  0  0  0  0  0  0
   -9.6267  -24.7340  -33.3232 H   0  0  0  0  0  0  0  0  0  0  0  0
   -8.9104  -25.5050  -34.7543 H   0  0  0  0  0  0  0  0  0  0  0  0
  -11.8556  -24.8538  -34.3312 H   0  0  0  0  0  0  0  0  0  0  0  0
  -10.7602  -24.0617  -35.4618 H   0  0  0  0  0  0  0  0  0  0  0  0
  -11.6340  -27.0036  -35.6542 H   0  0  0  0  0  0  0  0  0  0  0  0
  -10.5335  -26.1635  -36.7567 H   0  0  0  0  0  0  0  0  0  0  0  0
  -14.2469  -24.8484  -38.2872 H   0  0  0  0  0  0  0  0  0  0  0  0
  -12.3208  -25.3599  -37.8488 H   0  0  0  0  0  0  0  0  0  0  0  0
  -11.0334  -27.6716  -32.0507 H   0  0  0  0  0  0  0  0  0  0  0  0
  1  2  1  0  0  0  0
  1  4  2  0  0  0  0
  2  5  2  0  0  0  0
  3  4  1  0  0  0  0
  3  6  2  0  0  0  0
  4 12  1  0  0  0  0
  5  6  1  0  0  0  0
  5 17  1  0  0  0  0
  6 18  1  0  0  0  0
  7  9  1  0  0  0  0
  7 14  2  0  0  0  0
  7 16  1  0  0  0  0
  8 12  1  0  0  0  0
  8 13  1  0  0  0  0
  8 15  2  0  0  0  0
  9 10  1  0  0  0  0
 10 11  1  0  0  0  0
 11 13  1  0  0  0  0
  1 19  1  0  0  0  0
  2 20  1  0  0  0  0
  3 21  1  0  0  0  0
  9 22  1  0  0  0  0
  9 23  1  0  0  0  0
 10 24  1  0  0  0  0
 10 25  1  0  0  0  0
 11 26  1  0  0  0  0
 11 27  1  0  0  0  0
 12 28  1  0  0  0  0
 13 29  1  0  0  0  0
 16 30  1  0  0  0  0
M  END
> <Name>
IA_130.cdx

> <SourceTag>
IA_130

> <Gold.Version>
5.2

> <Gold.Id.Protein>
6HGV|6HGV_protein|mol2

> <Gold.Goldscore.Fitness>
55.8752

> <Gold.Goldscore.Internal.Vdw>
-2.9421

> <Gold.Goldscore.Internal.Torsion>
-1.7894

> <Gold.Goldscore.External.Vdw>
40.1521

> <Gold.Goldscore.Internal.HBond>
0.0000

> <Gold.Goldscore.External.HBond>
2.6470

> <Gold.Goldscore.Internal.Correction>
-2.7504

> <Gold.Goldscore.Hbonds>
donor molecule, donor type, donor heavy atom, donor atom, acceptor molecule, acceptor atom, score
      L1  H    12    28       P1  1931  0.72
      L1  H    13    29       P1  1931  0.60

> <Gold.Goldscore.Internal.Vdw.Weighted>
-2.9421

> <Gold.Goldscore.Internal.Torsion.Weighted>
-1.7894

> <Gold.Goldscore.External.Vdw.Weighted>
55.2092

> <Gold.Goldscore.Internal.HBond.Weighted>
0.0000

> <Gold.Goldscore.External.HBond.Weighted>
2.6470

> <Gold.Goldscore.Internal.Correction.Weighted>
-2.7504

> <Gold.Protein.RotatedTorsions>
[ 3781 1176 1175 1172 ] final  -24.57 input   60.00 | X-H torsion
[ 3847 1247 1246 1244 ] final  -73.98 input   60.00 | X-H torsion
[ 4507 1931 1930 1928 ] final  134.42 input   60.00 | X-H torsion
[ 3677 1070 1069 1066 ] final -115.08 input   60.00 | X-H torsion
[ 3525  925  924  922 ] final   39.06 input   59.99 | X-H torsion
[ 4531 1957 1955 1953 ] final   16.92 input   60.00 | X-H torsion

> <Gold.Protein.ActiveResidues>
 PHE267  PRO268  MET310  ASP335  TRP336  MET339  TYR343  THR360  PRO361  ILE363 
 PRO371  SER374  ILE375  ASN378  PHE381  TYR383  GLN384  PHE387  LEU408  LEU417 
 MET419  LEU428  TYR466  MET469  ASN472  ASP496  VAL498  LEU499  MET503  HIS524 
 TRP525 

> <Gold.Protein.RotatedAtoms>
   -3.1167  -29.7224  -30.8360 H   0  0  0  0  0  0  0  0  0  0  0  0  # atno 3525 bound_to 925 
  -11.5256  -23.6294  -31.4488 H   0  0  0  0  0  0  0  0  0  0  0  0  # atno 3677 bound_to 1070
  -10.6418  -37.0211  -33.9648 H   0  0  0  0  0  0  0  0  0  0  0  0  # atno 3781 bound_to 1176
  -16.0134  -27.6691  -37.3370 H   0  0  0  0  0  0  0  0  0  0  0  0  # atno 3847 bound_to 1247
  -12.4985  -23.8361  -39.5637 H   0  0  0  0  0  0  0  0  0  0  0  0  # atno 4507 bound_to 1931
   -3.0085  -32.7293  -36.6642 H   0  0  0  0  0  0  0  0  0  0  0  0  # atno 4531 bound_to 1957
   -9.2847  -36.3251  -33.3976 LP  0  0  0  0  0  0  0  0  0  0  0  0  # atno 5205 bound_to 1176
  -10.1799  -37.2859  -32.4270 LP  0  0  0  0  0  0  0  0  0  0  0  0  # atno 5206 bound_to 1176
  -14.5074  -27.6046  -37.9500 LP  0  0  0  0  0  0  0  0  0  0  0  0  # atno 5215 bound_to 1247
  -15.0377  -28.9663  -37.2210 LP  0  0  0  0  0  0  0  0  0  0  0  0  # atno 5216 bound_to 1247
  -13.1029  -25.2120  -38.9392 LP  0  0  0  0  0  0  0  0  0  0  0  0  # atno 5217 bound_to 1931
  -13.5974  -24.6913  -40.4059 LP  0  0  0  0  0  0  0  0  0  0  0  0  # atno 5218 bound_to 1931
  -11.5128  -22.2114  -30.6505 LP  0  0  0  0  0  0  0  0  0  0  0  0  # atno 5224 bound_to 1070
  -12.8186  -23.1883  -30.5648 LP  0  0  0  0  0  0  0  0  0  0  0  0  # atno 5225 bound_to 1070

$$$$
IA_158.cdx|SeH_inactivess_minimized|sdf|59|dock9
  -GOLD-   4172119533D 1   1.00000     0.00000

 23 22  0  0  0  0  0  0  0  0  1 V2000
  -11.7708  -24.8462  -36.4005 C   0  0  0  0  0  0  0  0  0  0  0  0
  -15.2069  -25.2106  -36.8669 C   0  0  0  0  0  0  0  0  0  0  0  0
  -11.3391  -27.1033  -35.0856 C   0  0  0  0  0  0  0  0  0  0  0  0
   -9.1778  -26.0225  -34.3950 C   0  0  0  0  0  0  0  0  0  0  0  0
  -11.3616  -25.1076  -33.5523 C   0  0  0  0  0  0  0  0  0  0  0  0
  -13.8560  -25.6183  -36.3158 C   0  0  0  0  0  0  0  0  0  0  0  0
  -10.6519  -25.7872  -34.7229 C   0  0  0  0  0  0  0  0  0  0  0  0
  -12.8181  -24.7854  -36.9283 N   0  0  0  0  0  0  0  0  0  0  0  0
  -10.7174  -24.8932  -35.8876 N   0  0  0  0  0  0  0  0  0  0  0  0
  -15.2281  -25.3265  -37.9547 H   0  0  0  0  0  0  0  0  0  0  0  0
  -16.0057  -25.8256  -36.4395 H   0  0  0  0  0  0  0  0  0  0  0  0
  -15.4275  -24.1648  -36.6276 H   0  0  0  0  0  0  0  0  0  0  0  0
  -10.8287  -27.9558  -34.6231 H   0  0  0  0  0  0  0  0  0  0  0  0
  -12.3826  -27.1117  -34.7521 H   0  0  0  0  0  0  0  0  0  0  0  0
  -11.3293  -27.2693  -36.1690 H   0  0  0  0  0  0  0  0  0  0  0  0
   -9.0659  -26.6008  -33.4707 H   0  0  0  0  0  0  0  0  0  0  0  0
   -8.6490  -25.0735  -34.2486 H   0  0  0  0  0  0  0  0  0  0  0  0
   -8.6740  -26.5697  -35.1993 H   0  0  0  0  0  0  0  0  0  0  0  0
  -12.2518  -24.5650  -33.8904 H   0  0  0  0  0  0  0  0  0  0  0  0
  -11.6771  -25.8390  -32.8003 H   0  0  0  0  0  0  0  0  0  0  0  0
  -10.7057  -24.3791  -33.0619 H   0  0  0  0  0  0  0  0  0  0  0  0
  -13.6568  -26.6710  -36.5386 H   0  0  0  0  0  0  0  0  0  0  0  0
  -13.8335  -25.4878  -35.2295 H   0  0  0  0  0  0  0  0  0  0  0  0
  1  8  2  0  0  0  0
  1  9  2  0  0  0  0
  2  6  1  0  0  0  0
  3  7  1  0  0  0  0
  4  7  1  0  0  0  0
  5  7  1  0  0  0  0
  6  8  1  0  0  0  0
  7  9  1  0  0  0  0
  2 10  1  0  0  0  0
  2 11  1  0  0  0  0
  2 12  1  0  0  0  0
  3 13  1  0  0  0  0
  3 14  1  0  0  0  0
  3 15  1  0  0  0  0
  4 16  1  0  0  0  0
  4 17  1  0  0  0  0
  4 18  1  0  0  0  0
  5 19  1  0  0  0  0
  5 20  1  0  0  0  0
  5 21  1  0  0  0  0
  6 22  1  0  0  0  0
  6 23  1  0  0  0  0
M  END
> <Name>
IA_158.cdx

> <SourceTag>
IA_158

> <Gold.Version>
5.2

> <Gold.Id.Protein>
6HGV|6HGV_protein|mol2

> <Gold.Goldscore.Fitness>
39.2445

> <Gold.Goldscore.Internal.Vdw>
-7.0591

> <Gold.Goldscore.Internal.Torsion>
-4.8502

> <Gold.Goldscore.External.Vdw>
27.5901

> <Gold.Goldscore.Internal.HBond>
0.0000

> <Gold.Goldscore.External.HBond>
1.6962

> <Gold.Goldscore.Internal.Correction>
-11.5212

> <Gold.Goldscore.Hbonds>
donor molecule, donor type, donor heavy atom, donor atom, acceptor molecule, acceptor atom, score
      P1  H  1931  4507       L1     8  0.85

> <Gold.Goldscore.Internal.Vdw.Weighted>
-7.0591

> <Gold.Goldscore.Internal.Torsion.Weighted>
-4.8502

> <Gold.Goldscore.External.Vdw.Weighted>
37.9364

> <Gold.Goldscore.Internal.HBond.Weighted>
0.0000

> <Gold.Goldscore.External.HBond.Weighted>
1.6962

> <Gold.Goldscore.Internal.Correction.Weighted>
-11.5212

> <Gold.Protein.RotatedTorsions>
[ 3781 1176 1175 1172 ] final -154.90 input   60.00 | X-H torsion
[ 3847 1247 1246 1244 ] final   72.81 input   60.00 | X-H torsion
[ 4507 1931 1930 1928 ] final   42.35 input   60.00 | X-H torsion
[ 3677 1070 1069 1066 ] final  -39.37 input   60.00 | X-H torsion
[ 3525  925  924  922 ] final   62.86 input   59.99 | X-H torsion
[ 4531 1957 1955 1953 ] final -171.08 input   60.00 | X-H torsion

> <Gold.Protein.ActiveResidues>
 PHE267  PRO268  MET310  ASP335  TRP336  MET339  TYR343  THR360  PRO361  ILE363 
 PRO371  SER374  ILE375  ASN378  PHE381  TYR383  GLN384  PHE387  LEU408  LEU417 
 MET419  LEU428  TYR466  MET469  ASN472  ASP496  VAL498  LEU499  MET503  HIS524 
 TRP525 

> <Gold.Protein.RotatedAtoms>
   -2.7628  -29.8743  -30.8619 H   0  0  0  0  0  0  0  0  0  0  0  0  # atno 3525 bound_to 925 
  -12.5713  -23.7070  -30.9788 H   0  0  0  0  0  0  0  0  0  0  0  0  # atno 3677 bound_to 1070
   -9.2527  -36.3671  -33.2366 H   0  0  0  0  0  0  0  0  0  0  0  0  # atno 3781 bound_to 1176
  -14.6651  -28.8505  -37.4142 H   0  0  0  0  0  0  0  0  0  0  0  0  # atno 3847 bound_to 1247
  -12.8008  -24.9040  -38.7991 H   0  0  0  0  0  0  0  0  0  0  0  0  # atno 4507 bound_to 1931
   -1.4131  -33.6471  -36.9833 H   0  0  0  0  0  0  0  0  0  0  0  0  # atno 4531 bound_to 1957
  -10.3188  -37.3513  -32.4998 LP  0  0  0  0  0  0  0  0  0  0  0  0  # atno 5205 bound_to 1176
  -10.5447  -36.9183  -34.0581 LP  0  0  0  0  0  0  0  0  0  0  0  0  # atno 5206 bound_to 1176
  -16.0673  -28.0641  -37.1620 LP  0  0  0  0  0  0  0  0  0  0  0  0  # atno 5215 bound_to 1247
  -14.8357  -27.3170  -37.9312 LP  0  0  0  0  0  0  0  0  0  0  0  0  # atno 5216 bound_to 1247
  -13.6995  -25.0519  -40.1477 LP  0  0  0  0  0  0  0  0  0  0  0  0  # atno 5217 bound_to 1931
  -12.6964  -23.7760  -39.9674 LP  0  0  0  0  0  0  0  0  0  0  0  0  # atno 5218 bound_to 1931
  -11.1188  -23.0622  -31.3287 LP  0  0  0  0  0  0  0  0  0  0  0  0  # atno 5224 bound_to 1070
  -12.1596  -22.2594  -30.3598 LP  0  0  0  0  0  0  0  0  0  0  0  0  # atno 5225 bound_to 1070

$$$$
IA_172.cdx|SeH_inactivess_minimized|sdf|75|dock5
  -GOLD-   4172120163D 1   1.00000     0.00000

 34 33  0  0  0  0  0  0  0  0  1 V2000
   -9.5597  -27.2274  -34.6164 C   0  0  0  0  0  0  0  0  0  0  0  0
   -4.6442  -30.0727  -34.4711 C   0  0  0  0  0  0  0  0  0  0  0  0
  -11.8871  -26.5100  -36.6175 C   0  0  0  0  0  0  0  0  0  0  0  0
  -11.4790  -29.6371  -33.5251 C   0  0  0  0  0  0  0  0  0  0  0  0
   -6.0451  -30.2163  -35.0450 C   0  0  0  0  0  0  0  0  0  0  0  0
  -12.2080  -25.2776  -35.7844 C   0  0  0  0  0  0  0  0  0  0  0  0
   -7.0524  -29.3524  -34.2826 C   0  0  0  0  0  0  0  0  0  0  0  0
  -10.1543  -29.1226  -33.0746 C   0  0  0  0  0  0  0  0  0  0  0  0
   -8.4680  -29.4761  -34.8365 C   0  0  0  0  0  0  0  0  0  0  0  0
  -11.0424  -24.9136  -34.8717 C   0  0  0  0  0  0  0  0  0  0  0  0
   -9.3992  -28.5566  -34.1936 N   0  0  0  0  0  0  0  0  0  0  0  0
   -8.9403  -26.7251  -35.5518 O   0  0  0  0  0  0  0  0  0  0  0  0
  -10.7167  -26.2476  -33.6985 S   0  0  0  0  0  0  0  0  0  0  0  0
   -4.2849  -29.0430  -34.5665 H   0  0  0  0  0  0  0  0  0  0  0  0
   -4.6409  -30.3366  -33.4088 H   0  0  0  0  0  0  0  0  0  0  0  0
   -3.9390  -30.7323  -34.9869 H   0  0  0  0  0  0  0  0  0  0  0  0
  -12.6789  -26.7072  -37.3474 H   0  0  0  0  0  0  0  0  0  0  0  0
  -10.9499  -26.3646  -37.1639 H   0  0  0  0  0  0  0  0  0  0  0  0
  -11.7764  -27.3948  -35.9825 H   0  0  0  0  0  0  0  0  0  0  0  0
  -11.3616  -30.3539  -34.3451 H   0  0  0  0  0  0  0  0  0  0  0  0
  -12.0123  -30.1187  -32.6983 H   0  0  0  0  0  0  0  0  0  0  0  0
  -12.0962  -28.8066  -33.8881 H   0  0  0  0  0  0  0  0  0  0  0  0
   -6.0315  -29.9263  -36.1021 H   0  0  0  0  0  0  0  0  0  0  0  0
   -6.3400  -31.2708  -35.0009 H   0  0  0  0  0  0  0  0  0  0  0  0
  -13.1090  -25.4783  -35.1922 H   0  0  0  0  0  0  0  0  0  0  0  0
  -12.4378  -24.4457  -36.4611 H   0  0  0  0  0  0  0  0  0  0  0  0
   -7.0440  -29.6284  -33.2209 H   0  0  0  0  0  0  0  0  0  0  0  0
   -6.7442  -28.3018  -34.3456 H   0  0  0  0  0  0  0  0  0  0  0  0
   -9.5559  -29.9303  -32.6426 H   0  0  0  0  0  0  0  0  0  0  0  0
  -10.2783  -28.3361  -32.3244 H   0  0  0  0  0  0  0  0  0  0  0  0
   -8.8571  -30.4912  -34.7096 H   0  0  0  0  0  0  0  0  0  0  0  0
   -8.4732  -29.2405  -35.9055 H   0  0  0  0  0  0  0  0  0  0  0  0
  -10.1340  -24.7370  -35.4566 H   0  0  0  0  0  0  0  0  0  0  0  0
  -11.2638  -24.0021  -34.3072 H   0  0  0  0  0  0  0  0  0  0  0  0
  1 11  1  0  0  0  0
  1 12  2  0  0  0  0
  1 13  1  0  0  0  0
  2  5  1  0  0  0  0
  3  6  1  0  0  0  0
  4  8  1  0  0  0  0
  5  7  1  0  0  0  0
  6 10  1  0  0  0  0
  7  9  1  0  0  0  0
  8 11  1  0  0  0  0
  9 11  1  0  0  0  0
 10 13  1  0  0  0  0
  2 14  1  0  0  0  0
  2 15  1  0  0  0  0
  2 16  1  0  0  0  0
  3 17  1  0  0  0  0
  3 18  1  0  0  0  0
  3 19  1  0  0  0  0
  4 20  1  0  0  0  0
  4 21  1  0  0  0  0
  4 22  1  0  0  0  0
  5 23  1  0  0  0  0
  5 24  1  0  0  0  0
  6 25  1  0  0  0  0
  6 26  1  0  0  0  0
  7 27  1  0  0  0  0
  7 28  1  0  0  0  0
  8 29  1  0  0  0  0
  8 30  1  0  0  0  0
  9 31  1  0  0  0  0
  9 32  1  0  0  0  0
 10 33  1  0  0  0  0
 10 34  1  0  0  0  0
M  END
> <Name>
IA_172.cdx

> <SourceTag>
IA_172

> <Gold.Version>
5.2

> <Gold.Id.Protein>
6HGV|6HGV_protein|mol2

> <Gold.Goldscore.Fitness>
43.7931

> <Gold.Goldscore.Internal.Vdw>
-4.5495

> <Gold.Goldscore.Internal.Torsion>
-2.1970

> <Gold.Goldscore.External.Vdw>
32.6990

> <Gold.Goldscore.Internal.HBond>
0.0000

> <Gold.Goldscore.External.HBond>
0.0000

> <Gold.Goldscore.Internal.Correction>
-5.5785

> <Gold.Goldscore.Internal.Vdw.Weighted>
-4.5495

> <Gold.Goldscore.Internal.Torsion.Weighted>
-2.1970

> <Gold.Goldscore.External.Vdw.Weighted>
44.9611

> <Gold.Goldscore.Internal.HBond.Weighted>
0.0000

> <Gold.Goldscore.External.HBond.Weighted>
0.0000

> <Gold.Goldscore.Internal.Correction.Weighted>
-5.5785

> <Gold.Protein.RotatedTorsions>
[ 3781 1176 1175 1172 ] final    6.54 input   60.00 | X-H torsion
[ 3847 1247 1246 1244 ] final   85.08 input   60.00 | X-H torsion
[ 4507 1931 1930 1928 ] final   82.02 input   60.00 | X-H torsion
[ 3677 1070 1069 1066 ] final -103.32 input   60.00 | X-H torsion
[ 3525  925  924  922 ] final   23.60 input   59.99 | X-H torsion
[ 4531 1957 1955 1953 ] final    5.40 input   60.00 | X-H torsion

> <Gold.Protein.ActiveResidues>
 PHE267  PRO268  MET310  ASP335  TRP336  MET339  TYR343  THR360  PRO361  ILE363 
 PRO371  SER374  ILE375  ASN378  PHE381  TYR383  GLN384  PHE387  LEU408  LEU417 
 MET419  LEU428  TYR466  MET469  ASN472  ASP496  VAL498  LEU499  MET503  HIS524 
 TRP525 

> <Gold.Protein.RotatedAtoms>
   -3.3318  -29.6377  -30.7360 H   0  0  0  0  0  0  0  0  0  0  0  0  # atno 3525 bound_to 925 
  -11.6871  -23.7306  -31.4270 H   0  0  0  0  0  0  0  0  0  0  0  0  # atno 3677 bound_to 1070
  -10.8199  -37.2853  -33.5767 H   0  0  0  0  0  0  0  0  0  0  0  0  # atno 3781 bound_to 1176
  -14.5270  -28.7419  -37.5100 H   0  0  0  0  0  0  0  0  0  0  0  0  # atno 3847 bound_to 1247
  -12.4943  -24.3622  -38.9260 H   0  0  0  0  0  0  0  0  0  0  0  0  # atno 4507 bound_to 1931
   -2.9124  -32.5686  -36.6797 H   0  0  0  0  0  0  0  0  0  0  0  0  # atno 4531 bound_to 1957
   -9.5323  -36.3252  -33.8384 LP  0  0  0  0  0  0  0  0  0  0  0  0  # atno 5205 bound_to 1176
   -9.7530  -37.0197  -32.3770 LP  0  0  0  0  0  0  0  0  0  0  0  0  # atno 5206 bound_to 1176
  -16.0257  -28.2532  -37.1060 LP  0  0  0  0  0  0  0  0  0  0  0  0  # atno 5215 bound_to 1247
  -15.0164  -27.2374  -37.8908 LP  0  0  0  0  0  0  0  0  0  0  0  0  # atno 5216 bound_to 1247
  -13.5920  -25.3588  -39.5967 LP  0  0  0  0  0  0  0  0  0  0  0  0  # atno 5217 bound_to 1931
  -13.1126  -24.0147  -40.3906 LP  0  0  0  0  0  0  0  0  0  0  0  0  # atno 5218 bound_to 1931
  -11.3697  -22.2805  -30.7602 LP  0  0  0  0  0  0  0  0  0  0  0  0  # atno 5224 bound_to 1070
  -12.7992  -23.0173  -30.4770 LP  0  0  0  0  0  0  0  0  0  0  0  0  # atno 5225 bound_to 1070

$$$$
IA_161.cdx|SeH_inactivess_minimized|sdf|63|dock4
  -GOLD-   4172120 33D 1   1.00000     0.00000

 40 41  0  0  0  0  0  0  0  0  1 V2000
  -14.0359  -27.0926  -35.3775 C   0  0  0  0  0  0  0  0  0  0  0  0
   -9.5989  -26.2497  -34.5208 C   0  0  0  0  0  0  0  0  0  0  0  0
  -10.8971  -25.5445  -34.1414 C   0  0  0  0  0  0  0  0  0  0  0  0
   -9.8647  -27.5390  -35.2913 C   0  0  0  0  0  0  0  0  0  0  0  0
  -11.7779  -25.2865  -35.3635 C   0  0  0  0  0  0  0  0  0  0  0  0
  -10.7399  -27.2928  -36.5199 C   0  0  0  0  0  0  0  0  0  0  0  0
  -18.5808  -24.5717  -37.8651 C   0  0  0  0  0  0  0  0  0  0  0  0
  -16.3585  -23.7941  -38.3706 C   0  0  0  0  0  0  0  0  0  0  0  0
  -19.1277  -23.2269  -38.3355 C   0  0  0  0  0  0  0  0  0  0  0  0
  -16.9578  -22.4672  -38.8279 C   0  0  0  0  0  0  0  0  0  0  0  0
  -12.0342  -26.5508  -36.1849 C   0  0  0  0  0  0  0  0  0  0  0  0
  -15.4532  -25.4964  -36.0063 C   0  0  0  0  0  0  0  0  0  0  0  0
  -16.6684  -25.6802  -36.8987 C   0  0  0  0  0  0  0  0  0  0  0  0
  -12.9195  -27.4477  -35.4292 N   0  0  0  0  0  0  0  0  0  0  0  0
  -15.1587  -26.7537  -35.3145 N   0  0  0  0  0  0  0  0  0  0  0  0
  -17.2173  -24.4012  -37.3443 N   0  0  0  0  0  0  0  0  0  0  0  0
  -18.2771  -22.6666  -39.3365 O   0  0  0  0  0  0  0  0  0  0  0  0
   -8.9843  -25.5785  -35.1332 H   0  0  0  0  0  0  0  0  0  0  0  0
   -9.0227  -26.4732  -33.6159 H   0  0  0  0  0  0  0  0  0  0  0  0
  -11.4450  -26.1544  -33.4128 H   0  0  0  0  0  0  0  0  0  0  0  0
  -10.6677  -24.5931  -33.6480 H   0  0  0  0  0  0  0  0  0  0  0  0
   -8.9126  -27.9834  -35.6032 H   0  0  0  0  0  0  0  0  0  0  0  0
  -10.3516  -28.2663  -34.6302 H   0  0  0  0  0  0  0  0  0  0  0  0
  -12.7282  -24.8467  -35.0379 H   0  0  0  0  0  0  0  0  0  0  0  0
  -11.2848  -24.5426  -36.0021 H   0  0  0  0  0  0  0  0  0  0  0  0
  -10.1690  -26.6994  -37.2452 H   0  0  0  0  0  0  0  0  0  0  0  0
  -10.9653  -28.2520  -37.0013 H   0  0  0  0  0  0  0  0  0  0  0  0
  -19.2360  -24.9672  -37.0841 H   0  0  0  0  0  0  0  0  0  0  0  0
  -18.5781  -25.2755  -38.7043 H   0  0  0  0  0  0  0  0  0  0  0  0
  -16.2656  -24.4662  -39.2303 H   0  0  0  0  0  0  0  0  0  0  0  0
  -15.3596  -23.6096  -37.9658 H   0  0  0  0  0  0  0  0  0  0  0  0
  -20.1193  -23.3634  -38.7788 H   0  0  0  0  0  0  0  0  0  0  0  0
  -19.2302  -22.5194  -37.5039 H   0  0  0  0  0  0  0  0  0  0  0  0
  -16.9866  -21.7330  -38.0134 H   0  0  0  0  0  0  0  0  0  0  0  0
  -16.3514  -22.0423  -39.6342 H   0  0  0  0  0  0  0  0  0  0  0  0
  -12.5462  -26.2790  -37.1147 H   0  0  0  0  0  0  0  0  0  0  0  0
  -14.5853  -25.2153  -36.6112 H   0  0  0  0  0  0  0  0  0  0  0  0
  -15.6241  -24.7081  -35.2658 H   0  0  0  0  0  0  0  0  0  0  0  0
  -17.4675  -26.2176  -36.3783 H   0  0  0  0  0  0  0  0  0  0  0  0
  -16.3981  -26.2446  -37.7965 H   0  0  0  0  0  0  0  0  0  0  0  0
  1 14  2  0  0  0  0
  1 15  2  0  0  0  0
  2  3  1  0  0  0  0
  2  4  1  0  0  0  0
  3  5  1  0  0  0  0
  4  6  1  0  0  0  0
  5 11  1  0  0  0  0
  6 11  1  0  0  0  0
  7  9  1  0  0  0  0
  7 16  1  0  0  0  0
  8 10  1  0  0  0  0
  8 16  1  0  0  0  0
  9 17  1  0  0  0  0
 10 17  1  0  0  0  0
 11 14  1  0  0  0  0
 12 13  1  0  0  0  0
 12 15  1  0  0  0  0
 13 16  1  0  0  0  0
  2 18  1  0  0  0  0
  2 19  1  0  0  0  0
  3 20  1  0  0  0  0
  3 21  1  0  0  0  0
  4 22  1  0  0  0  0
  4 23  1  0  0  0  0
  5 24  1  0  0  0  0
  5 25  1  0  0  0  0
  6 26  1  0  0  0  0
  6 27  1  0  0  0  0
  7 28  1  0  0  0  0
  7 29  1  0  0  0  0
  8 30  1  0  0  0  0
  8 31  1  0  0  0  0
  9 32  1  0  0  0  0
  9 33  1  0  0  0  0
 10 34  1  0  0  0  0
 10 35  1  0  0  0  0
 11 36  1  0  0  0  0
 12 37  1  0  0  0  0
 12 38  1  0  0  0  0
 13 39  1  0  0  0  0
 13 40  1  0  0  0  0
M  END
> <Name>
IA_161.cdx

> <SourceTag>
IA_161

> <Gold.Version>
5.2

> <Gold.Id.Protein>
6HGV|6HGV_protein|mol2

> <Gold.Goldscore.Fitness>
56.6035

> <Gold.Goldscore.Internal.Vdw>
-5.8980

> <Gold.Goldscore.Internal.Torsion>
-1.7625

> <Gold.Goldscore.External.Vdw>
42.1387

> <Gold.Goldscore.Internal.HBond>
0.0000

> <Gold.Goldscore.External.HBond>
0.0000

> <Gold.Goldscore.Internal.Correction>
-6.3233

> <Gold.Goldscore.Internal.Vdw.Weighted>
-5.8980

> <Gold.Goldscore.Internal.Torsion.Weighted>
-1.7625

> <Gold.Goldscore.External.Vdw.Weighted>
57.9407

> <Gold.Goldscore.Internal.HBond.Weighted>
0.0000

> <Gold.Goldscore.External.HBond.Weighted>
0.0000

> <Gold.Goldscore.Internal.Correction.Weighted>
-6.3233

> <Gold.Protein.RotatedTorsions>
[ 3781 1176 1175 1172 ] final -172.73 input   60.00 | X-H torsion
[ 3847 1247 1246 1244 ] final   56.58 input   60.00 | X-H torsion
[ 4507 1931 1930 1928 ] final   65.08 input   60.00 | X-H torsion
[ 3677 1070 1069 1066 ] final -145.90 input   60.00 | X-H torsion
[ 3525  925  924  922 ] final  -74.02 input   59.99 | X-H torsion
[ 4531 1957 1955 1953 ] final  153.90 input   60.00 | X-H torsion

> <Gold.Protein.ActiveResidues>
 PHE267  PRO268  MET310  ASP335  TRP336  MET339  TYR343  THR360  PRO361  ILE363 
 PRO371  SER374  ILE375  ASN378  PHE381  TYR383  GLN384  PHE387  LEU408  LEU417 
 MET419  LEU428  TYR466  MET469  ASN472  ASP496  VAL498  LEU499  MET503  HIS524 
 TRP525 

> <Gold.Protein.RotatedAtoms>
   -3.6018  -29.6466  -29.3531 H   0  0  0  0  0  0  0  0  0  0  0  0  # atno 3525 bound_to 925 
  -11.2020  -23.2553  -31.3948 H   0  0  0  0  0  0  0  0  0  0  0  0  # atno 3677 bound_to 1070
   -9.2507  -36.4676  -32.9645 H   0  0  0  0  0  0  0  0  0  0  0  0  # atno 3781 bound_to 1176
  -14.8834  -28.9395  -37.2945 H   0  0  0  0  0  0  0  0  0  0  0  0  # atno 3847 bound_to 1247
  -12.5991  -24.5962  -38.8242 H   0  0  0  0  0  0  0  0  0  0  0  0  # atno 4507 bound_to 1931
   -1.8439  -34.0020  -36.9076 H   0  0  0  0  0  0  0  0  0  0  0  0  # atno 4531 bound_to 1957
  -10.5344  -37.4269  -32.6819 LP  0  0  0  0  0  0  0  0  0  0  0  0  # atno 5205 bound_to 1176
  -10.3312  -36.7414  -34.1501 LP  0  0  0  0  0  0  0  0  0  0  0  0  # atno 5206 bound_to 1176
  -16.0605  -27.8165  -37.2594 LP  0  0  0  0  0  0  0  0  0  0  0  0  # atno 5215 bound_to 1247
  -14.6227  -27.4750  -37.9544 LP  0  0  0  0  0  0  0  0  0  0  0  0  # atno 5216 bound_to 1247
  -13.6735  -25.2669  -39.8459 LP  0  0  0  0  0  0  0  0  0  0  0  0  # atno 5217 bound_to 1931
  -12.9254  -23.8709  -40.2439 LP  0  0  0  0  0  0  0  0  0  0  0  0  # atno 5218 bound_to 1931
  -11.9579  -22.1929  -30.4211 LP  0  0  0  0  0  0  0  0  0  0  0  0  # atno 5224 bound_to 1070
  -12.6994  -23.5836  -30.8486 LP  0  0  0  0  0  0  0  0  0  0  0  0  # atno 5225 bound_to 1070

$$$$
IA_23|SeH_inactivess_minimized|sdf|111|dock2
  -GOLD-   4172120593D 1   1.00000     0.00000

 67 70  0  0  0  0  0  0  0  0  1 V2000
  -18.5861  -24.3098  -39.5496 C   0  0  0  0  0  0  0  0  0  0  0  0
  -17.1197  -23.4034  -40.7981 C   0  0  0  0  0  0  0  0  0  0  0  0
  -17.3762  -24.7816  -39.0977 C   0  0  0  0  0  0  0  0  0  0  0  0
  -13.9478  -24.7862  -37.0189 C   0  0  0  0  0  0  0  0  0  0  0  0
  -17.2910  -25.2430  -35.5447 C   0  0  0  0  0  0  0  0  0  0  0  0
   -7.4575  -29.1850  -34.2070 C   0  0  0  0  0  0  0  0  0  0  0  0
   -3.2981  -31.4416  -33.4434 C   0  0  0  0  0  0  0  0  0  0  0  0
   -4.4205  -33.5275  -34.2673 C   0  0  0  0  0  0  0  0  0  0  0  0
   -4.5444  -32.9125  -31.8393 C   0  0  0  0  0  0  0  0  0  0  0  0
   -5.3432  -31.2793  -34.8852 C   0  0  0  0  0  0  0  0  0  0  0  0
   -5.4671  -30.6637  -32.4545 C   0  0  0  0  0  0  0  0  0  0  0  0
   -6.5914  -32.7530  -33.2791 C   0  0  0  0  0  0  0  0  0  0  0  0
   -4.0540  -32.0766  -34.6228 C   0  0  0  0  0  0  0  0  0  0  0  0
   -4.1783  -31.4584  -32.1823 C   0  0  0  0  0  0  0  0  0  0  0  0
   -5.3067  -33.5556  -33.0103 C   0  0  0  0  0  0  0  0  0  0  0  0
   -6.2468  -31.2898  -33.6321 C   0  0  0  0  0  0  0  0  0  0  0  0
  -17.0048  -25.7298  -37.9830 C   0  0  0  0  0  0  0  0  0  0  0  0
  -12.6483  -25.4372  -36.5754 C   0  0  0  0  0  0  0  0  0  0  0  0
  -12.3892  -25.3349  -35.0727 C   0  0  0  0  0  0  0  0  0  0  0  0
  -10.9550  -25.6659  -34.6406 C   0  0  0  0  0  0  0  0  0  0  0  0
  -10.5359  -27.1033  -34.9668 C   0  0  0  0  0  0  0  0  0  0  0  0
   -9.0457  -27.3417  -34.7399 C   0  0  0  0  0  0  0  0  0  0  0  0
  -16.4084  -25.0155  -36.7632 C   0  0  2  0  0  0  0  0  0  0  0  0
  -18.4195  -23.4523  -40.6082 N   0  0  0  0  0  0  0  0  0  0  0  0
  -16.4465  -24.1922  -39.9072 N   0  0  0  0  0  0  0  0  0  0  0  0
  -15.0546  -25.4533  -36.5144 N   0  0  0  0  0  0  0  0  0  0  0  0
   -7.4570  -30.5375  -33.8812 N   0  0  0  0  0  0  0  0  0  0  0  0
   -8.7544  -28.7129  -34.3933 N   0  0  0  0  0  0  0  0  0  0  0  0
  -13.9905  -23.7754  -37.7151 O   0  0  0  0  0  0  0  0  0  0  0  0
  -16.8820  -25.7628  -34.5118 O   0  0  0  0  0  0  0  0  0  0  0  0
   -6.4458  -28.4937  -34.3172 O   0  0  0  0  0  0  0  0  0  0  0  0
  -18.5703  -24.8187  -35.6817 O   0  0  0  0  0  0  0  0  0  0  0  0
  -19.5701  -24.5423  -39.1680 H   0  0  0  0  0  0  0  0  0  0  0  0
  -16.6080  -22.8240  -41.5531 H   0  0  0  0  0  0  0  0  0  0  0  0
   -2.3664  -31.9900  -33.2575 H   0  0  0  0  0  0  0  0  0  0  0  0
   -3.0168  -30.4105  -33.6902 H   0  0  0  0  0  0  0  0  0  0  0  0
   -4.9470  -33.9975  -35.1071 H   0  0  0  0  0  0  0  0  0  0  0  0
   -3.5084  -34.1124  -34.0954 H   0  0  0  0  0  0  0  0  0  0  0  0
   -3.6350  -33.4871  -31.6245 H   0  0  0  0  0  0  0  0  0  0  0  0
   -5.1597  -32.9396  -30.9316 H   0  0  0  0  0  0  0  0  0  0  0  0
   -5.0919  -30.2477  -35.1646 H   0  0  0  0  0  0  0  0  0  0  0  0
   -5.8785  -31.7082  -35.7426 H   0  0  0  0  0  0  0  0  0  0  0  0
   -6.0920  -30.6469  -31.5519 H   0  0  0  0  0  0  0  0  0  0  0  0
   -5.2199  -29.6172  -32.6764 H   0  0  0  0  0  0  0  0  0  0  0  0
   -7.1570  -33.2180  -34.0971 H   0  0  0  0  0  0  0  0  0  0  0  0
   -7.2429  -32.7885  -32.3959 H   0  0  0  0  0  0  0  0  0  0  0  0
   -3.4221  -32.0632  -35.5179 H   0  0  0  0  0  0  0  0  0  0  0  0
   -3.6345  -31.0064  -31.3454 H   0  0  0  0  0  0  0  0  0  0  0  0
   -5.5627  -34.5913  -32.7610 H   0  0  0  0  0  0  0  0  0  0  0  0
  -16.2926  -26.4634  -38.3836 H   0  0  0  0  0  0  0  0  0  0  0  0
  -17.8856  -26.3150  -37.6854 H   0  0  0  0  0  0  0  0  0  0  0  0
  -12.7186  -26.4978  -36.8475 H   0  0  0  0  0  0  0  0  0  0  0  0
  -11.8122  -25.0178  -37.1444 H   0  0  0  0  0  0  0  0  0  0  0  0
  -12.6296  -24.3211  -34.7290 H   0  0  0  0  0  0  0  0  0  0  0  0
  -13.0795  -26.0102  -34.5522 H   0  0  0  0  0  0  0  0  0  0  0  0
  -10.8864  -25.5127  -33.5562 H   0  0  0  0  0  0  0  0  0  0  0  0
  -10.2542  -24.9594  -35.0988 H   0  0  0  0  0  0  0  0  0  0  0  0
  -11.1006  -27.7963  -34.3319 H   0  0  0  0  0  0  0  0  0  0  0  0
  -10.7827  -27.3395  -36.0081 H   0  0  0  0  0  0  0  0  0  0  0  0
   -8.4620  -27.0891  -35.6306 H   0  0  0  0  0  0  0  0  0  0  0  0
   -8.6895  -26.7201  -33.9122 H   0  0  0  0  0  0  0  0  0  0  0  0
  -16.3551  -23.9322  -36.9210 H   0  0  0  0  0  0  0  0  0  0  0  0
  -15.4435  -24.3148  -39.8590 H   0  0  0  0  0  0  0  0  0  0  0  0
  -14.9229  -26.3049  -35.9766 H   0  0  0  0  0  0  0  0  0  0  0  0
   -8.3473  -31.0189  -33.8151 H   0  0  0  0  0  0  0  0  0  0  0  0
   -9.5273  -29.3677  -34.3267 H   0  0  0  0  0  0  0  0  0  0  0  0
  -19.1240  -24.9140  -34.8784 H   0  0  0  0  0  0  0  0  0  0  0  0
  1  3  2  0  0  0  0
  1 24  1  0  0  0  0
  2 24  2  0  0  0  0
  2 25  1  0  0  0  0
  3 17  1  0  0  0  0
  3 25  1  0  0  0  0
  4 18  1  0  0  0  0
  4 26  1  0  0  0  0
  4 29  2  0  0  0  0
  5 23  1  0  0  0  0
  5 30  2  0  0  0  0
  5 32  1  0  0  0  0
  6 27  1  0  0  0  0
  6 28  1  0  0  0  0
  6 31  2  0  0  0  0
  7 13  1  0  0  0  0
  7 14  1  0  0  0  0
  8 13  1  0  0  0  0
  8 15  1  0  0  0  0
  9 14  1  0  0  0  0
  9 15  1  0  0  0  0
 10 13  1  0  0  0  0
 10 16  1  0  0  0  0
 11 14  1  0  0  0  0
 11 16  1  0  0  0  0
 12 15  1  0  0  0  0
 12 16  1  0  0  0  0
 16 27  1  0  0  0  0
 17 23  1  0  0  0  0
 18 19  1  0  0  0  0
 19 20  1  0  0  0  0
 20 21  1  0  0  0  0
 21 22  1  0  0  0  0
 22 28  1  0  0  0  0
 23 26  1  0  0  0  0
  1 33  1  0  0  0  0
  2 34  1  0  0  0  0
  7 35  1  0  0  0  0
  7 36  1  0  0  0  0
  8 37  1  0  0  0  0
  8 38  1  0  0  0  0
  9 39  1  0  0  0  0
  9 40  1  0  0  0  0
 10 41  1  0  0  0  0
 10 42  1  0  0  0  0
 11 43  1  0  0  0  0
 11 44  1  0  0  0  0
 12 45  1  0  0  0  0
 12 46  1  0  0  0  0
 13 47  1  0  0  0  0
 14 48  1  0  0  0  0
 15 49  1  0  0  0  0
 17 50  1  0  0  0  0
 17 51  1  0  0  0  0
 18 52  1  0  0  0  0
 18 53  1  0  0  0  0
 19 54  1  0  0  0  0
 19 55  1  0  0  0  0
 20 56  1  0  0  0  0
 20 57  1  0  0  0  0
 21 58  1  0  0  0  0
 21 59  1  0  0  0  0
 22 60  1  0  0  0  0
 22 61  1  0  0  0  0
 23 62  1  0  0  0  0
 25 63  1  0  0  0  0
 26 64  1  0  0  0  0
 27 65  1  0  0  0  0
 28 66  1  0  0  0  0
 32 67  1  0  0  0  0
M  END
> <Name>
IA_23

> <SourceTag>
IA_22

> <Gold.Version>
5.2

> <Gold.Id.Protein>
6HGV|6HGV_protein|mol2

> <Gold.Goldscore.Fitness>
76.5562

> <Gold.Goldscore.Internal.Vdw>
-4.3870

> <Gold.Goldscore.Internal.Torsion>
-7.3843

> <Gold.Goldscore.External.Vdw>
57.0309

> <Gold.Goldscore.Internal.HBond>
0.0000

> <Gold.Goldscore.External.HBond>
3.1951

> <Gold.Goldscore.Internal.Correction>
-6.7150

> <Gold.Goldscore.Hbonds>
donor molecule, donor type, donor heavy atom, donor atom, acceptor molecule, acceptor atom, score
      L1  H    25    63       P1  1931  0.64
      L1  H    32    67       P1  2185  0.32

> <Gold.Goldscore.Internal.Vdw.Weighted>
-4.3870

> <Gold.Goldscore.Internal.Torsion.Weighted>
-7.3843

> <Gold.Goldscore.External.Vdw.Weighted>
78.4175

> <Gold.Goldscore.Internal.HBond.Weighted>
0.0000

> <Gold.Goldscore.External.HBond.Weighted>
3.1951

> <Gold.Goldscore.Internal.Correction.Weighted>
-6.7150

> <Gold.Protein.RotatedTorsions>
[ 3781 1176 1175 1172 ] final   72.15 input   60.00 | X-H torsion
[ 3847 1247 1246 1244 ] final    0.80 input   60.00 | X-H torsion
[ 4507 1931 1930 1928 ] final  140.50 input   60.00 | X-H torsion
[ 3677 1070 1069 1066 ] final  -67.94 input   60.00 | X-H torsion
[ 3525  925  924  922 ] final  -52.40 input   59.99 | X-H torsion
[ 4531 1957 1955 1953 ] final  124.31 input   60.00 | X-H torsion

> <Gold.Protein.ActiveResidues>
 PHE267  PRO268  MET310  ASP335  TRP336  MET339  TYR343  THR360  PRO361  ILE363 
 PRO371  SER374  ILE375  ASN378  PHE381  TYR383  GLN384  PHE387  LEU408  LEU417 
 MET419  LEU428  TYR466  MET469  ASN472  ASP496  VAL498  LEU499  MET503  HIS524 
 TRP525 

> <Gold.Protein.RotatedAtoms>
   -3.7427  -29.5569  -29.6619 H   0  0  0  0  0  0  0  0  0  0  0  0  # atno 3525 bound_to 925 
  -12.2103  -23.8425  -31.2335 H   0  0  0  0  0  0  0  0  0  0  0  0  # atno 3677 bound_to 1070
  -10.4750  -37.4094  -32.6309 H   0  0  0  0  0  0  0  0  0  0  0  0  # atno 3781 bound_to 1176
  -15.6985  -28.7251  -37.0566 H   0  0  0  0  0  0  0  0  0  0  0  0  # atno 3847 bound_to 1247
  -12.5317  -23.8087  -39.6531 H   0  0  0  0  0  0  0  0  0  0  0  0  # atno 4507 bound_to 1931
   -2.3107  -34.0583  -36.8198 H   0  0  0  0  0  0  0  0  0  0  0  0  # atno 4531 bound_to 1957
  -10.3933  -36.7892  -34.1331 LP  0  0  0  0  0  0  0  0  0  0  0  0  # atno 5205 bound_to 1176
   -9.2393  -36.4307  -33.0348 LP  0  0  0  0  0  0  0  0  0  0  0  0  # atno 5206 bound_to 1176
  -15.5556  -27.2296  -37.6821 LP  0  0  0  0  0  0  0  0  0  0  0  0  # atno 5215 bound_to 1247
  -14.3067  -28.2778  -37.7713 LP  0  0  0  0  0  0  0  0  0  0  0  0  # atno 5216 bound_to 1247
  -13.0353  -25.1557  -38.8916 LP  0  0  0  0  0  0  0  0  0  0  0  0  # atno 5217 bound_to 1931
  -13.6315  -24.7751  -40.3634 LP  0  0  0  0  0  0  0  0  0  0  0  0  # atno 5218 bound_to 1931
  -11.1051  -22.6552  -31.1037 LP  0  0  0  0  0  0  0  0  0  0  0  0  # atno 5224 bound_to 1070
  -12.5368  -22.5300  -30.3285 LP  0  0  0  0  0  0  0  0  0  0  0  0  # atno 5225 bound_to 1070

$$$$
IA_204|SeH_inactivess_minimized|sdf|101|dock2
  -GOLD-   4172120473D 1   1.00000     0.00000

 30 30  0  0  0  0  0  0  0  0  1 V2000
  -17.4298  -25.1228  -35.7850 C   0  0  0  0  0  0  0  0  0  0  0  0
  -14.3470  -26.3250  -35.6153 C   0  0  0  0  0  0  0  0  0  0  0  0
   -9.5581  -25.8555  -34.6542 C   0  0  0  0  0  0  0  0  0  0  0  0
  -10.3163  -26.3755  -35.8726 C   0  0  0  0  0  0  0  0  0  0  0  0
  -10.5040  -25.3978  -33.5472 C   0  0  0  0  0  0  0  0  0  0  0  0
  -11.3136  -27.4698  -35.4898 C   0  0  0  0  0  0  0  0  0  0  0  0
  -11.5007  -26.4946  -33.1697 C   0  0  0  0  0  0  0  0  0  0  0  0
  -12.2775  -27.0347  -34.3778 C   0  0  0  0  0  0  0  0  0  0  0  0
  -16.2709  -25.2033  -36.7309 C   0  0  0  0  0  0  0  0  0  0  0  0
  -13.2049  -26.0184  -34.8798 N   0  0  0  0  0  0  0  0  0  0  0  0
  -15.0470  -25.1730  -35.9652 N   0  0  0  0  0  0  0  0  0  0  0  0
  -18.5669  -24.7686  -36.0582 O   0  0  0  0  0  0  0  0  0  0  0  0
  -14.6946  -27.4659  -35.9172 O   0  0  0  0  0  0  0  0  0  0  0  0
  -17.0406  -25.5083  -34.5421 O   0  0  0  0  0  0  0  0  0  0  0  0
   -8.8942  -26.6400  -34.2708 H   0  0  0  0  0  0  0  0  0  0  0  0
   -8.9171  -25.0163  -34.9553 H   0  0  0  0  0  0  0  0  0  0  0  0
  -10.8462  -25.5488  -36.3579 H   0  0  0  0  0  0  0  0  0  0  0  0
   -9.6032  -26.7733  -36.6045 H   0  0  0  0  0  0  0  0  0  0  0  0
   -9.9217  -25.1151  -32.6622 H   0  0  0  0  0  0  0  0  0  0  0  0
  -11.0471  -24.5039  -33.8725 H   0  0  0  0  0  0  0  0  0  0  0  0
  -11.8873  -27.7695  -36.3843 H   0  0  0  0  0  0  0  0  0  0  0  0
  -10.7618  -28.3719  -35.1759 H   0  0  0  0  0  0  0  0  0  0  0  0
  -10.9636  -27.3188  -32.6706 H   0  0  0  0  0  0  0  0  0  0  0  0
  -12.2070  -26.1024  -32.4172 H   0  0  0  0  0  0  0  0  0  0  0  0
  -12.8915  -27.8782  -34.0727 H   0  0  0  0  0  0  0  0  0  0  0  0
  -16.3170  -26.1418  -37.2896 H   0  0  0  0  0  0  0  0  0  0  0  0
  -16.2873  -24.3491  -37.4127 H   0  0  0  0  0  0  0  0  0  0  0  0
  -13.0053  -25.0424  -34.6818 H   0  0  0  0  0  0  0  0  0  0  0  0
  -14.7092  -24.2756  -35.6320 H   0  0  0  0  0  0  0  0  0  0  0  0
  -17.7841  -25.4854  -33.9027 H   0  0  0  0  0  0  0  0  0  0  0  0
  1  9  1  0  0  0  0
  1 12  2  0  0  0  0
  1 14  1  0  0  0  0
  2 10  1  0  0  0  0
  2 11  1  0  0  0  0
  2 13  2  0  0  0  0
  3  4  1  0  0  0  0
  3  5  1  0  0  0  0
  4  6  1  0  0  0  0
  5  7  1  0  0  0  0
  6  8  1  0  0  0  0
  7  8  1  0  0  0  0
  8 10  1  0  0  0  0
  9 11  1  0  0  0  0
  3 15  1  0  0  0  0
  3 16  1  0  0  0  0
  4 17  1  0  0  0  0
  4 18  1  0  0  0  0
  5 19  1  0  0  0  0
  5 20  1  0  0  0  0
  6 21  1  0  0  0  0
  6 22  1  0  0  0  0
  7 23  1  0  0  0  0
  7 24  1  0  0  0  0
  8 25  1  0  0  0  0
  9 26  1  0  0  0  0
  9 27  1  0  0  0  0
 10 28  1  0  0  0  0
 11 29  1  0  0  0  0
 14 30  1  0  0  0  0
M  END
> <Name>
IA_204

> <SourceTag>
IA_204

> <Gold.Version>
5.2

> <Gold.Id.Protein>
6HGV|6HGV_protein|mol2

> <Gold.Goldscore.Fitness>
46.5028

> <Gold.Goldscore.Internal.Vdw>
-1.6513

> <Gold.Goldscore.Internal.Torsion>
-1.8313

> <Gold.Goldscore.External.Vdw>
27.9034

> <Gold.Goldscore.Internal.HBond>
0.0000

> <Gold.Goldscore.External.HBond>
9.0813

> <Gold.Goldscore.Internal.Correction>
-2.5369

> <Gold.Goldscore.Hbonds>
donor molecule, donor type, donor heavy atom, donor atom, acceptor molecule, acceptor atom, score
      L1  H    10    28       P1   853  0.03
      L1  H    11    29       P1   853  0.84
      L1  H    14    30       P1  2185  0.65

> <Gold.Goldscore.Internal.Vdw.Weighted>
-1.6513

> <Gold.Goldscore.Internal.Torsion.Weighted>
-1.8313

> <Gold.Goldscore.External.Vdw.Weighted>
38.3672

> <Gold.Goldscore.Internal.HBond.Weighted>
0.0000

> <Gold.Goldscore.External.HBond.Weighted>
9.0813

> <Gold.Goldscore.Internal.Correction.Weighted>
-2.5369

> <Gold.Protein.RotatedTorsions>
[ 3781 1176 1175 1172 ] final  148.62 input   60.00 | X-H torsion
[ 3847 1247 1246 1244 ] final   58.82 input   60.00 | X-H torsion
[ 4507 1931 1930 1928 ] final   23.63 input   60.00 | X-H torsion
[ 3677 1070 1069 1066 ] final  -98.84 input   60.00 | X-H torsion
[ 3525  925  924  922 ] final  -75.45 input   59.99 | X-H torsion
[ 4531 1957 1955 1953 ] final   52.32 input   60.00 | X-H torsion

> <Gold.Protein.ActiveResidues>
 PHE267  PRO268  MET310  ASP335  TRP336  MET339  TYR343  THR360  PRO361  ILE363 
 PRO371  SER374  ILE375  ASN378  PHE381  TYR383  GLN384  PHE387  LEU408  LEU417 
 MET419  LEU428  TYR466  MET469  ASN472  ASP496  VAL498  LEU499  MET503  HIS524 
 TRP525 

> <Gold.Protein.RotatedAtoms>
   -3.5887  -29.6539  -29.3351 H   0  0  0  0  0  0  0  0  0  0  0  0  # atno 3525 bound_to 925 
  -11.7519  -23.7614  -31.4127 H   0  0  0  0  0  0  0  0  0  0  0  0  # atno 3677 bound_to 1070
   -9.4955  -36.8032  -32.5047 H   0  0  0  0  0  0  0  0  0  0  0  0  # atno 3781 bound_to 1176
  -14.8514  -28.9312  -37.3103 H   0  0  0  0  0  0  0  0  0  0  0  0  # atno 3847 bound_to 1247
  -12.9993  -25.1215  -38.8766 H   0  0  0  0  0  0  0  0  0  0  0  0  # atno 4507 bound_to 1931
   -3.0855  -33.2934  -36.6593 H   0  0  0  0  0  0  0  0  0  0  0  0  # atno 4531 bound_to 1957
  -10.8167  -37.4069  -33.2380 LP  0  0  0  0  0  0  0  0  0  0  0  0  # atno 5205 bound_to 1176
   -9.8024  -36.4235  -34.0570 LP  0  0  0  0  0  0  0  0  0  0  0  0  # atno 5206 bound_to 1176
  -16.0656  -27.8498  -37.2446 LP  0  0  0  0  0  0  0  0  0  0  0  0  # atno 5215 bound_to 1247
  -14.6498  -27.4501  -37.9533 LP  0  0  0  0  0  0  0  0  0  0  0  0  # atno 5216 bound_to 1247
  -13.6466  -24.8176  -40.3383 LP  0  0  0  0  0  0  0  0  0  0  0  0  # atno 5217 bound_to 1931
  -12.5494  -23.7912  -39.6986 LP  0  0  0  0  0  0  0  0  0  0  0  0  # atno 5218 bound_to 1931
  -11.3212  -22.3151  -30.8038 LP  0  0  0  0  0  0  0  0  0  0  0  0  # atno 5224 bound_to 1070
  -12.7823  -22.9517  -30.4479 LP  0  0  0  0  0  0  0  0  0  0  0  0  # atno 5225 bound_to 1070

$$$$
IA_55.cdx|SeH_inactivess_minimized|sdf|140|dock4
  -GOLD-   4172121533D 1   1.00000     0.00000

 34 35  0  0  0  0  0  0  0  0  1 V2000
   -5.2439  -29.5719  -33.5331 C   0  0  0  0  0  0  0  0  0  0  0  0
   -3.4718  -32.2409  -34.5506 C   0  0  0  0  0  0  0  0  0  0  0  0
   -6.5154  -29.8718  -34.0215 C   0  0  0  0  0  0  0  0  0  0  0  0
   -4.7006  -30.3258  -32.4928 C   0  0  0  0  0  0  0  0  0  0  0  0
   -4.5283  -31.8839  -35.3884 C   0  0  0  0  0  0  0  0  0  0  0  0
   -3.6797  -33.1529  -33.5158 C   0  0  0  0  0  0  0  0  0  0  0  0
   -7.2439  -30.9256  -33.4695 C   0  0  0  0  0  0  0  0  0  0  0  0
   -5.4290  -31.3795  -31.9407 C   0  0  0  0  0  0  0  0  0  0  0  0
   -5.7928  -32.4388  -35.1914 C   0  0  0  0  0  0  0  0  0  0  0  0
   -4.9442  -33.7077  -33.3188 C   0  0  0  0  0  0  0  0  0  0  0  0
   -6.7007  -31.6794  -32.4291 C   0  0  0  0  0  0  0  0  0  0  0  0
   -6.0008  -33.3507  -34.1566 C   0  0  0  0  0  0  0  0  0  0  0  0
   -7.9528  -33.8080  -32.6911 C   0  0  0  0  0  0  0  0  0  0  0  0
   -7.7119  -32.8135  -30.4116 C   0  0  0  0  0  0  0  0  0  0  0  0
   -7.9845  -34.6337  -35.0495 C   0  0  0  0  0  0  0  0  0  0  0  0
   -7.4560  -32.7719  -31.8571 N   0  0  0  0  0  0  0  0  0  0  0  0
   -7.3118  -33.9259  -33.9526 N   0  0  0  0  0  0  0  0  0  0  0  0
   -8.8763  -34.5527  -32.3443 O   0  0  0  0  0  0  0  0  0  0  0  0
   -4.6760  -28.7520  -33.9631 H   0  0  0  0  0  0  0  0  0  0  0  0
   -2.4869  -31.8096  -34.7042 H   0  0  0  0  0  0  0  0  0  0  0  0
   -6.9384  -29.2857  -34.8320 H   0  0  0  0  0  0  0  0  0  0  0  0
   -3.7099  -30.0925  -32.1133 H   0  0  0  0  0  0  0  0  0  0  0  0
   -4.3666  -31.1745  -36.1947 H   0  0  0  0  0  0  0  0  0  0  0  0
   -2.8566  -33.4314  -32.8642 H   0  0  0  0  0  0  0  0  0  0  0  0
   -8.2340  -31.1502  -33.8583 H   0  0  0  0  0  0  0  0  0  0  0  0
   -4.9954  -31.9601  -31.1303 H   0  0  0  0  0  0  0  0  0  0  0  0
   -6.6087  -32.1531  -35.8506 H   0  0  0  0  0  0  0  0  0  0  0  0
   -5.0945  -34.4175  -32.5090 H   0  0  0  0  0  0  0  0  0  0  0  0
   -7.0790  -33.5694  -29.9396 H   0  0  0  0  0  0  0  0  0  0  0  0
   -8.7593  -33.0620  -30.2202 H   0  0  0  0  0  0  0  0  0  0  0  0
   -7.4945  -31.8413  -29.9612 H   0  0  0  0  0  0  0  0  0  0  0  0
   -9.0526  -34.4013  -35.0476 H   0  0  0  0  0  0  0  0  0  0  0  0
   -7.8593  -35.7139  -34.9355 H   0  0  0  0  0  0  0  0  0  0  0  0
   -7.5604  -34.3313  -36.0108 H   0  0  0  0  0  0  0  0  0  0  0  0
  1  3  2  0  0  0  0
  1  4  1  0  0  0  0
  2  5  2  0  0  0  0
  2  6  1  0  0  0  0
  3  7  1  0  0  0  0
  4  8  2  0  0  0  0
  5  9  1  0  0  0  0
  6 10  2  0  0  0  0
  7 11  2  0  0  0  0
  8 11  1  0  0  0  0
  9 12  2  0  0  0  0
 10 12  1  0  0  0  0
 11 16  1  0  0  0  0
 12 17  1  0  0  0  0
 13 16  1  0  0  0  0
 13 17  1  0  0  0  0
 13 18  2  0  0  0  0
 14 16  1  0  0  0  0
 15 17  1  0  0  0  0
  1 19  1  0  0  0  0
  2 20  1  0  0  0  0
  3 21  1  0  0  0  0
  4 22  1  0  0  0  0
  5 23  1  0  0  0  0
  6 24  1  0  0  0  0
  7 25  1  0  0  0  0
  8 26  1  0  0  0  0
  9 27  1  0  0  0  0
 10 28  1  0  0  0  0
 14 29  1  0  0  0  0
 14 30  1  0  0  0  0
 14 31  1  0  0  0  0
 15 32  1  0  0  0  0
 15 33  1  0  0  0  0
 15 34  1  0  0  0  0
M  END
> <Name>
IA_55.cdx

> <SourceTag>
IA_55

> <Gold.Version>
5.2

> <Gold.Id.Protein>
6HGV|6HGV_protein|mol2

> <Gold.Goldscore.Fitness>
37.3464

> <Gold.Goldscore.Internal.Vdw>
1.3641

> <Gold.Goldscore.Internal.Torsion>
-15.7249

> <Gold.Goldscore.External.Vdw>
27.0102

> <Gold.Goldscore.Internal.HBond>
0.0000

> <Gold.Goldscore.External.HBond>
0.8814

> <Gold.Goldscore.Internal.Correction>
-13.6869

> <Gold.Goldscore.Hbonds>
donor molecule, donor type, donor heavy atom, donor atom, acceptor molecule, acceptor atom, score
      P1  H  1176  3781       L1    18  0.44

> <Gold.Goldscore.Internal.Vdw.Weighted>
1.3641

> <Gold.Goldscore.Internal.Torsion.Weighted>
-15.7249

> <Gold.Goldscore.External.Vdw.Weighted>
37.1390

> <Gold.Goldscore.Internal.HBond.Weighted>
0.0000

> <Gold.Goldscore.External.HBond.Weighted>
0.8814

> <Gold.Goldscore.Internal.Correction.Weighted>
-13.6869

> <Gold.Protein.RotatedTorsions>
[ 3781 1176 1175 1172 ] final -171.43 input   60.00 | X-H torsion
[ 3847 1247 1246 1244 ] final   28.82 input   60.00 | X-H torsion
[ 4507 1931 1930 1928 ] final -103.76 input   60.00 | X-H torsion
[ 3677 1070 1069 1066 ] final   61.99 input   60.00 | X-H torsion
[ 3525  925  924  922 ] final  -64.01 input   59.99 | X-H torsion
[ 4531 1957 1955 1953 ] final  100.18 input   60.00 | X-H torsion

> <Gold.Protein.ActiveResidues>
 PHE267  PRO268  MET310  ASP335  TRP336  MET339  TYR343  THR360  PRO361  ILE363 
 PRO371  SER374  ILE375  ASN378  PHE381  TYR383  GLN384  PHE387  LEU408  LEU417 
 MET419  LEU428  TYR466  MET469  ASN472  ASP496  VAL498  LEU499  MET503  HIS524 
 TRP525 

> <Gold.Protein.RotatedAtoms>
   -3.6806  -29.5998  -29.4882 H   0  0  0  0  0  0  0  0  0  0  0  0  # atno 3525 bound_to 925 
  -12.4136  -22.4237  -30.3256 H   0  0  0  0  0  0  0  0  0  0  0  0  # atno 3677 bound_to 1070
   -9.2482  -36.4588  -32.9837 H   0  0  0  0  0  0  0  0  0  0  0  0  # atno 3781 bound_to 1176
  -15.3024  -28.9317  -37.1330 H   0  0  0  0  0  0  0  0  0  0  0  0  # atno 3847 bound_to 1247
  -13.6027  -24.7168  -40.3898 H   0  0  0  0  0  0  0  0  0  0  0  0  # atno 4507 bound_to 1931
   -2.6713  -33.9238  -36.7489 H   0  0  0  0  0  0  0  0  0  0  0  0  # atno 4531 bound_to 1957
  -10.5201  -37.4231  -32.6665 LP  0  0  0  0  0  0  0  0  0  0  0  0  # atno 5205 bound_to 1176
  -10.3480  -36.7541  -34.1462 LP  0  0  0  0  0  0  0  0  0  0  0  0  # atno 5206 bound_to 1176
  -15.8907  -27.4514  -37.4657 LP  0  0  0  0  0  0  0  0  0  0  0  0  # atno 5215 bound_to 1247
  -14.3704  -27.8479  -37.9107 LP  0  0  0  0  0  0  0  0  0  0  0  0  # atno 5216 bound_to 1247
  -12.5056  -23.8205  -39.5890 LP  0  0  0  0  0  0  0  0  0  0  0  0  # atno 5217 bound_to 1931
  -13.0827  -25.1959  -38.9241 LP  0  0  0  0  0  0  0  0  0  0  0  0  # atno 5218 bound_to 1931
  -12.3517  -23.8222  -31.1554 LP  0  0  0  0  0  0  0  0  0  0  0  0  # atno 5224 bound_to 1070
  -11.0855  -22.7916  -31.1910 LP  0  0  0  0  0  0  0  0  0  0  0  0  # atno 5225 bound_to 1070

$$$$
IA_113.cdx|SeH_inactivess_minimized|sdf|16|dock3
  -GOLD-   4172118533D 1   1.00000     0.00000

 33 33  0  0  0  0  0  0  0  0  1 V2000
  -16.5279  -22.7625  -38.6113 C   0  0  0  0  0  0  0  0  0  0  0  0
  -13.6904  -25.6706  -37.2684 C   0  0  0  0  0  0  0  0  0  0  0  0
  -11.1480  -26.7001  -33.4754 C   0  0  0  0  0  0  0  0  0  0  0  0
  -11.0044  -25.2290  -33.8564 C   0  0  0  0  0  0  0  0  0  0  0  0
  -12.0228  -27.4626  -34.4670 C   0  0  0  0  0  0  0  0  0  0  0  0
  -10.5079  -25.0659  -35.2936 C   0  0  0  0  0  0  0  0  0  0  0  0
  -11.5237  -27.2944  -35.9027 C   0  0  0  0  0  0  0  0  0  0  0  0
  -11.3711  -25.8232  -36.3115 C   0  0  0  0  0  0  0  0  0  0  0  0
  -17.0219  -24.0017  -37.8968 C   0  0  0  0  0  0  0  0  0  0  0  0
  -16.0293  -25.1557  -37.9529 C   0  0  0  0  0  0  0  0  0  0  0  0
  -12.6869  -25.1910  -36.4302 N   0  0  0  0  0  0  0  0  0  0  0  0
  -14.8359  -24.8826  -37.1872 N   0  0  0  0  0  0  0  0  0  0  0  0
  -16.8806  -22.3936  -39.7227 O   0  0  0  0  0  0  0  0  0  0  0  0
  -13.5810  -26.6625  -37.9879 O   0  0  0  0  0  0  0  0  0  0  0  0
  -15.6277  -22.0808  -37.8552 O   0  0  0  0  0  0  0  0  0  0  0  0
  -10.1564  -27.1662  -33.4245 H   0  0  0  0  0  0  0  0  0  0  0  0
  -11.5860  -26.7750  -32.4712 H   0  0  0  0  0  0  0  0  0  0  0  0
  -11.9686  -24.7222  -33.7408 H   0  0  0  0  0  0  0  0  0  0  0  0
  -10.3011  -24.7410  -33.1711 H   0  0  0  0  0  0  0  0  0  0  0  0
  -12.0284  -28.5275  -34.2061 H   0  0  0  0  0  0  0  0  0  0  0  0
  -13.0570  -27.1093  -34.3937 H   0  0  0  0  0  0  0  0  0  0  0  0
  -10.4831  -23.9925  -35.5511 H   0  0  0  0  0  0  0  0  0  0  0  0
   -9.4621  -25.4104  -35.3590 H   0  0  0  0  0  0  0  0  0  0  0  0
  -10.5588  -27.8168  -36.0166 H   0  0  0  0  0  0  0  0  0  0  0  0
  -12.2195  -27.8029  -36.5927 H   0  0  0  0  0  0  0  0  0  0  0  0
  -10.9171  -25.7607  -37.2971 H   0  0  0  0  0  0  0  0  0  0  0  0
  -17.2331  -23.7400  -36.8537 H   0  0  0  0  0  0  0  0  0  0  0  0
  -17.9527  -24.3129  -38.3841 H   0  0  0  0  0  0  0  0  0  0  0  0
  -15.7206  -25.3739  -38.9801 H   0  0  0  0  0  0  0  0  0  0  0  0
  -16.4792  -26.0593  -37.5300 H   0  0  0  0  0  0  0  0  0  0  0  0
  -12.8767  -24.3625  -35.8743 H   0  0  0  0  0  0  0  0  0  0  0  0
  -14.8515  -24.1089  -36.5302 H   0  0  0  0  0  0  0  0  0  0  0  0
  -15.2383  -21.2905  -38.2873 H   0  0  0  0  0  0  0  0  0  0  0  0
  1  9  1  0  0  0  0
  1 13  2  0  0  0  0
  1 15  1  0  0  0  0
  2 11  1  0  0  0  0
  2 12  1  0  0  0  0
  2 14  2  0  0  0  0
  3  4  1  0  0  0  0
  3  5  1  0  0  0  0
  4  6  1  0  0  0  0
  5  7  1  0  0  0  0
  6  8  1  0  0  0  0
  7  8  1  0  0  0  0
  8 11  1  0  0  0  0
  9 10  1  0  0  0  0
 10 12  1  0  0  0  0
  3 16  1  0  0  0  0
  3 17  1  0  0  0  0
  4 18  1  0  0  0  0
  4 19  1  0  0  0  0
  5 20  1  0  0  0  0
  5 21  1  0  0  0  0
  6 22  1  0  0  0  0
  6 23  1  0  0  0  0
  7 24  1  0  0  0  0
  7 25  1  0  0  0  0
  8 26  1  0  0  0  0
  9 27  1  0  0  0  0
  9 28  1  0  0  0  0
 10 29  1  0  0  0  0
 10 30  1  0  0  0  0
 11 31  1  0  0  0  0
 12 32  1  0  0  0  0
 15 33  1  0  0  0  0
M  END
> <Name>
IA_113.cdx

> <SourceTag>
IA_113

> <Gold.Version>
5.2

> <Gold.Id.Protein>
6HGV|6HGV_protein|mol2

> <Gold.Goldscore.Fitness>
49.7729

> <Gold.Goldscore.Internal.Vdw>
-2.1243

> <Gold.Goldscore.Internal.Torsion>
-2.0061

> <Gold.Goldscore.External.Vdw>
31.8915

> <Gold.Goldscore.Internal.HBond>
0.0000

> <Gold.Goldscore.External.HBond>
8.0324

> <Gold.Goldscore.Internal.Correction>
-2.0202

> <Gold.Goldscore.Hbonds>
donor molecule, donor type, donor heavy atom, donor atom, acceptor molecule, acceptor atom, score
      P1  H  1247  3847       L1    14  0.15
      L1  H    11    31       P1   853  0.53
      L1  H    12    32       P1   853  0.49
      L1  H    15    33       P1   302  0.80

> <Gold.Goldscore.Internal.Vdw.Weighted>
-2.1243

> <Gold.Goldscore.Internal.Torsion.Weighted>
-2.0061

> <Gold.Goldscore.External.Vdw.Weighted>
43.8508

> <Gold.Goldscore.Internal.HBond.Weighted>
0.0000

> <Gold.Goldscore.External.HBond.Weighted>
8.0324

> <Gold.Goldscore.Internal.Correction.Weighted>
-2.0202

> <Gold.Protein.RotatedTorsions>
[ 3781 1176 1175 1172 ] final   20.83 input   60.00 | X-H torsion
[ 3847 1247 1246 1244 ] final  144.71 input   60.00 | X-H torsion
[ 4507 1931 1930 1928 ] final  111.35 input   60.00 | X-H torsion
[ 3677 1070 1069 1066 ] final  -85.79 input   60.00 | X-H torsion
[ 3525  925  924  922 ] final   79.81 input   59.99 | X-H torsion
[ 4531 1957 1955 1953 ] final   41.88 input   60.00 | X-H torsion

> <Gold.Protein.ActiveResidues>
 PHE267  PRO268  MET310  ASP335  TRP336  MET339  TYR343  THR360  PRO361  ILE363 
 PRO371  SER374  ILE375  ASN378  PHE381  TYR383  GLN384  PHE387  LEU408  LEU417 
 MET419  LEU428  TYR466  MET469  ASN472  ASP496  VAL498  LEU499  MET503  HIS524 
 TRP525 

> <Gold.Protein.RotatedAtoms>
   -2.5228  -29.9861  -30.7838 H   0  0  0  0  0  0  0  0  0  0  0  0  # atno 3525 bound_to 925 
  -11.9462  -23.8245  -31.3531 H   0  0  0  0  0  0  0  0  0  0  0  0  # atno 3677 bound_to 1070
  -10.8269  -37.3710  -33.3603 H   0  0  0  0  0  0  0  0  0  0  0  0  # atno 3781 bound_to 1176
  -14.3549  -27.9119  -37.8951 H   0  0  0  0  0  0  0  0  0  0  0  0  # atno 3847 bound_to 1247
  -12.4327  -24.0125  -39.2401 H   0  0  0  0  0  0  0  0  0  0  0  0  # atno 4507 bound_to 1931
   -3.0989  -33.1237  -36.6538 H   0  0  0  0  0  0  0  0  0  0  0  0  # atno 4531 bound_to 1957
   -9.7010  -36.3802  -33.9918 LP  0  0  0  0  0  0  0  0  0  0  0  0  # atno 5205 bound_to 1176
   -9.5773  -36.8784  -32.4416 LP  0  0  0  0  0  0  0  0  0  0  0  0  # atno 5206 bound_to 1176
  -15.3650  -28.9183  -37.1109 LP  0  0  0  0  0  0  0  0  0  0  0  0  # atno 5215 bound_to 1247
  -15.8504  -27.4080  -37.4981 LP  0  0  0  0  0  0  0  0  0  0  0  0  # atno 5216 bound_to 1247
  -13.3490  -25.3562  -39.1858 LP  0  0  0  0  0  0  0  0  0  0  0  0  # atno 5217 bound_to 1931
  -13.4176  -24.3695  -40.4852 LP  0  0  0  0  0  0  0  0  0  0  0  0  # atno 5218 bound_to 1931
  -11.2031  -22.4392  -30.9325 LP  0  0  0  0  0  0  0  0  0  0  0  0  # atno 5224 bound_to 1070
  -12.7048  -22.7641  -30.3792 LP  0  0  0  0  0  0  0  0  0  0  0  0  # atno 5225 bound_to 1070

$$$$
IA_104.cdx|SeH_inactivess_minimized|sdf|6|dock10
  -GOLD-   4172118353D 1   1.00000     0.00000

 62 61  0  0  0  0  0  0  0  0  1 V2000
   -3.5882  -32.9609  -33.2729 C   0  0  0  0  0  0  0  0  0  0  0  0
  -21.7419  -23.3884  -39.6182 C   0  0  0  0  0  0  0  0  0  0  0  0
  -20.8626  -24.3387  -38.8201 C   0  0  0  0  0  0  0  0  0  0  0  0
  -20.5046  -23.8132  -37.4277 C   0  0  0  0  0  0  0  0  0  0  0  0
  -19.5627  -24.7417  -36.6568 C   0  0  0  0  0  0  0  0  0  0  0  0
  -18.1274  -24.7298  -37.1940 C   0  0  0  0  0  0  0  0  0  0  0  0
  -17.0645  -25.3135  -36.2574 C   0  0  0  0  0  0  0  0  0  0  0  0
  -15.6264  -25.2752  -36.7837 C   0  0  0  0  0  0  0  0  0  0  0  0
  -14.5636  -25.8589  -35.8471 C   0  0  0  0  0  0  0  0  0  0  0  0
  -13.1097  -25.6612  -36.2868 C   0  0  0  0  0  0  0  0  0  0  0  0
  -12.0932  -26.2636  -35.3148 C   0  0  0  0  0  0  0  0  0  0  0  0
  -10.6591  -25.9581  -35.7534 C   0  0  0  0  0  0  0  0  0  0  0  0
   -9.6407  -26.6398  -34.8380 C   0  0  0  0  0  0  0  0  0  0  0  0
   -9.4735  -28.1178  -35.1947 C   0  0  0  0  0  0  0  0  0  0  0  0
   -8.1634  -28.6796  -34.6379 C   0  0  0  0  0  0  0  0  0  0  0  0
   -7.9983  -30.1579  -34.9958 C   0  0  0  0  0  0  0  0  0  0  0  0
   -6.5417  -30.6312  -34.9757 C   0  0  0  0  0  0  0  0  0  0  0  0
   -6.3252  -32.1366  -35.1721 C   0  0  0  0  0  0  0  0  0  0  0  0
   -4.8719  -32.5551  -35.3726 C   0  0  0  0  0  0  0  0  0  0  0  0
   -2.7781  -32.3013  -32.3658 N   0  0  0  0  0  0  0  0  0  0  0  0
   -4.0197  -32.1242  -34.2990 N   0  0  0  0  0  0  0  0  0  0  0  0
   -3.8800  -34.1505  -33.1637 O   0  0  0  0  0  0  0  0  0  0  0  0
  -21.2312  -22.4299  -39.7550 H   0  0  0  0  0  0  0  0  0  0  0  0
  -22.6869  -23.1979  -39.0997 H   0  0  0  0  0  0  0  0  0  0  0  0
  -21.9663  -23.7881  -40.6116 H   0  0  0  0  0  0  0  0  0  0  0  0
  -21.3593  -25.3123  -38.7362 H   0  0  0  0  0  0  0  0  0  0  0  0
  -19.9331  -24.5046  -39.3780 H   0  0  0  0  0  0  0  0  0  0  0  0
  -20.0265  -22.8328  -37.5435 H   0  0  0  0  0  0  0  0  0  0  0  0
  -21.4272  -23.6521  -36.8586 H   0  0  0  0  0  0  0  0  0  0  0  0
  -19.5593  -24.4817  -35.5931 H   0  0  0  0  0  0  0  0  0  0  0  0
  -19.9406  -25.7696  -36.7230 H   0  0  0  0  0  0  0  0  0  0  0  0
  -18.1082  -25.2693  -38.1482 H   0  0  0  0  0  0  0  0  0  0  0  0
  -17.8469  -23.6951  -37.4289 H   0  0  0  0  0  0  0  0  0  0  0  0
  -17.1153  -24.7801  -35.3007 H   0  0  0  0  0  0  0  0  0  0  0  0
  -17.3199  -26.3541  -36.0239 H   0  0  0  0  0  0  0  0  0  0  0  0
  -15.5947  -25.8056  -37.7430 H   0  0  0  0  0  0  0  0  0  0  0  0
  -15.3518  -24.2391  -37.0158 H   0  0  0  0  0  0  0  0  0  0  0  0
  -14.6963  -25.4087  -34.8552 H   0  0  0  0  0  0  0  0  0  0  0  0
  -14.7445  -26.9322  -35.7154 H   0  0  0  0  0  0  0  0  0  0  0  0
  -12.9005  -24.5951  -36.4306 H   0  0  0  0  0  0  0  0  0  0  0  0
  -12.9869  -26.1333  -37.2698 H   0  0  0  0  0  0  0  0  0  0  0  0
  -12.2520  -25.8619  -34.3079 H   0  0  0  0  0  0  0  0  0  0  0  0
  -12.2366  -27.3493  -35.2592 H   0  0  0  0  0  0  0  0  0  0  0  0
  -10.5099  -26.2977  -36.7855 H   0  0  0  0  0  0  0  0  0  0  0  0
  -10.4951  -24.8736  -35.7425 H   0  0  0  0  0  0  0  0  0  0  0  0
   -9.9655  -26.5480  -33.7945 H   0  0  0  0  0  0  0  0  0  0  0  0
   -8.6731  -26.1302  -34.9216 H   0  0  0  0  0  0  0  0  0  0  0  0
   -9.4901  -28.2369  -36.2848 H   0  0  0  0  0  0  0  0  0  0  0  0
  -10.3189  -28.6901  -34.7936 H   0  0  0  0  0  0  0  0  0  0  0  0
   -8.1470  -28.5610  -33.5479 H   0  0  0  0  0  0  0  0  0  0  0  0
   -7.3258  -28.0997  -35.0415 H   0  0  0  0  0  0  0  0  0  0  0  0
   -8.4451  -30.3558  -35.9768 H   0  0  0  0  0  0  0  0  0  0  0  0
   -8.5607  -30.7653  -34.2752 H   0  0  0  0  0  0  0  0  0  0  0  0
   -6.0909  -30.3233  -34.0243 H   0  0  0  0  0  0  0  0  0  0  0  0
   -5.9868  -30.0997  -35.7593 H   0  0  0  0  0  0  0  0  0  0  0  0
   -6.9112  -32.4515  -36.0452 H   0  0  0  0  0  0  0  0  0  0  0  0
   -6.7374  -32.6823  -34.3156 H   0  0  0  0  0  0  0  0  0  0  0  0
   -4.4794  -32.1048  -36.2901 H   0  0  0  0  0  0  0  0  0  0  0  0
   -4.7726  -33.6402  -35.4665 H   0  0  0  0  0  0  0  0  0  0  0  0
   -2.3826  -32.7757  -31.5613 H   0  0  0  0  0  0  0  0  0  0  0  0
   -2.5537  -31.3185  -32.4802 H   0  0  0  0  0  0  0  0  0  0  0  0
   -3.7141  -31.1522  -34.2880 H   0  0  0  0  0  0  0  0  0  0  0  0
  1 20  1  0  0  0  0
  1 21  1  0  0  0  0
  1 22  2  0  0  0  0
  2  3  1  0  0  0  0
  3  4  1  0  0  0  0
  4  5  1  0  0  0  0
  5  6  1  0  0  0  0
  6  7  1  0  0  0  0
  7  8  1  0  0  0  0
  8  9  1  0  0  0  0
  9 10  1  0  0  0  0
 10 11  1  0  0  0  0
 11 12  1  0  0  0  0
 12 13  1  0  0  0  0
 13 14  1  0  0  0  0
 14 15  1  0  0  0  0
 15 16  1  0  0  0  0
 16 17  1  0  0  0  0
 17 18  1  0  0  0  0
 18 19  1  0  0  0  0
 19 21  1  0  0  0  0
  2 23  1  0  0  0  0
  2 24  1  0  0  0  0
  2 25  1  0  0  0  0
  3 26  1  0  0  0  0
  3 27  1  0  0  0  0
  4 28  1  0  0  0  0
  4 29  1  0  0  0  0
  5 30  1  0  0  0  0
  5 31  1  0  0  0  0
  6 32  1  0  0  0  0
  6 33  1  0  0  0  0
  7 34  1  0  0  0  0
  7 35  1  0  0  0  0
  8 36  1  0  0  0  0
  8 37  1  0  0  0  0
  9 38  1  0  0  0  0
  9 39  1  0  0  0  0
 10 40  1  0  0  0  0
 10 41  1  0  0  0  0
 11 42  1  0  0  0  0
 11 43  1  0  0  0  0
 12 44  1  0  0  0  0
 12 45  1  0  0  0  0
 13 46  1  0  0  0  0
 13 47  1  0  0  0  0
 14 48  1  0  0  0  0
 14 49  1  0  0  0  0
 15 50  1  0  0  0  0
 15 51  1  0  0  0  0
 16 52  1  0  0  0  0
 16 53  1  0  0  0  0
 17 54  1  0  0  0  0
 17 55  1  0  0  0  0
 18 56  1  0  0  0  0
 18 57  1  0  0  0  0
 19 58  1  0  0  0  0
 19 59  1  0  0  0  0
 20 60  1  0  0  0  0
 20 61  1  0  0  0  0
 21 62  1  0  0  0  0
M  END
> <Name>
IA_104.cdx

> <SourceTag>
IA_104

> <Gold.Version>
5.2

> <Gold.Id.Protein>
6HGV|6HGV_protein|mol2

> <Gold.Goldscore.Fitness>
69.9149

> <Gold.Goldscore.Internal.Vdw>
-7.1576

> <Gold.Goldscore.Internal.Torsion>
-4.6918

> <Gold.Goldscore.External.Vdw>
54.3950

> <Gold.Goldscore.Internal.HBond>
0.0000

> <Gold.Goldscore.External.HBond>
0.0000

> <Gold.Goldscore.Internal.Correction>
-6.9712

> <Gold.Goldscore.Internal.Vdw.Weighted>
-7.1576

> <Gold.Goldscore.Internal.Torsion.Weighted>
-4.6918

> <Gold.Goldscore.External.Vdw.Weighted>
74.7931

> <Gold.Goldscore.Internal.HBond.Weighted>
0.0000

> <Gold.Goldscore.External.HBond.Weighted>
0.0000

> <Gold.Goldscore.Internal.Correction.Weighted>
-6.9712

> <Gold.Protein.RotatedTorsions>
[ 3781 1176 1175 1172 ] final  142.10 input   60.00 | X-H torsion
[ 3847 1247 1246 1244 ] final  119.88 input   60.00 | X-H torsion
[ 4507 1931 1930 1928 ] final   96.65 input   60.00 | X-H torsion
[ 3677 1070 1069 1066 ] final  -94.57 input   60.00 | X-H torsion
[ 3525  925  924  922 ] final    9.73 input   59.99 | X-H torsion
[ 4531 1957 1955 1953 ] final  -52.27 input   60.00 | X-H torsion

> <Gold.Protein.ActiveResidues>
 PHE267  PRO268  MET310  ASP335  TRP336  MET339  TYR343  THR360  PRO361  ILE363 
 PRO371  SER374  ILE375  ASN378  PHE381  TYR383  GLN384  PHE387  LEU408  LEU417 
 MET419  LEU428  TYR466  MET469  ASN472  ASP496  VAL498  LEU499  MET503  HIS524 
 TRP525 

> <Gold.Protein.RotatedAtoms>
   -3.4995  -29.5774  -30.5968 H   0  0  0  0  0  0  0  0  0  0  0  0  # atno 3525 bound_to 925 
  -11.8148  -23.7865  -31.3961 H   0  0  0  0  0  0  0  0  0  0  0  0  # atno 3677 bound_to 1070
   -9.5650  -36.8677  -32.4563 H   0  0  0  0  0  0  0  0  0  0  0  0  # atno 3781 bound_to 1176
  -14.3151  -28.2911  -37.7656 H   0  0  0  0  0  0  0  0  0  0  0  0  # atno 3847 bound_to 1247
  -12.4433  -24.1746  -39.0639 H   0  0  0  0  0  0  0  0  0  0  0  0  # atno 4507 bound_to 1931
   -2.1021  -32.1982  -36.8273 H   0  0  0  0  0  0  0  0  0  0  0  0  # atno 4531 bound_to 1957
  -10.8319  -37.3788  -33.3404 LP  0  0  0  0  0  0  0  0  0  0  0  0  # atno 5205 bound_to 1176
   -9.7171  -36.3867  -34.0033 LP  0  0  0  0  0  0  0  0  0  0  0  0  # atno 5206 bound_to 1176
  -15.7128  -28.7190  -37.0506 LP  0  0  0  0  0  0  0  0  0  0  0  0  # atno 5215 bound_to 1247
  -15.5426  -27.2256  -37.6887 LP  0  0  0  0  0  0  0  0  0  0  0  0  # atno 5216 bound_to 1247
  -13.4844  -25.3837  -39.3836 LP  0  0  0  0  0  0  0  0  0  0  0  0  # atno 5217 bound_to 1931
  -13.2714  -24.1786  -40.4647 LP  0  0  0  0  0  0  0  0  0  0  0  0  # atno 5218 bound_to 1931
  -11.2787  -22.3520  -30.8456 LP  0  0  0  0  0  0  0  0  0  0  0  0  # atno 5224 bound_to 1070
  -12.7615  -22.8896  -30.4228 LP  0  0  0  0  0  0  0  0  0  0  0  0  # atno 5225 bound_to 1070

$$$$
IA_148.cdx|SeH_inactivess_minimized|sdf|49|dock2
  -GOLD-   4172119403D 1   1.00000     0.00000

 44 46  0  0  0  0  0  0  0  0  1 V2000
  -18.8226  -23.5307  -39.8509 C   0  0  0  0  0  0  0  0  0  0  0  0
   -5.7936  -30.2931  -35.1333 C   0  0  0  0  0  0  0  0  0  0  0  0
   -6.2978  -29.0011  -34.9849 C   0  0  0  0  0  0  0  0  0  0  0  0
  -17.5143  -23.1083  -39.6153 C   0  0  0  0  0  0  0  0  0  0  0  0
  -19.3854  -24.5319  -39.0596 C   0  0  0  0  0  0  0  0  0  0  0  0
   -7.9667  -31.2027  -34.5971 C   0  0  0  0  0  0  0  0  0  0  0  0
  -11.4476  -26.0721  -34.9913 C   0  0  0  0  0  0  0  0  0  0  0  0
   -9.6829  -27.8268  -36.2521 C   0  0  0  0  0  0  0  0  0  0  0  0
  -17.3316  -24.6886  -37.7970 C   0  0  0  0  0  0  0  0  0  0  0  0
   -6.6281  -31.3940  -34.9395 C   0  0  0  0  0  0  0  0  0  0  0  0
  -11.8044  -26.6720  -36.1989 C   0  0  0  0  0  0  0  0  0  0  0  0
   -7.6364  -28.8098  -34.6425 C   0  0  0  0  0  0  0  0  0  0  0  0
   -9.3260  -27.2268  -35.0445 C   0  0  0  0  0  0  0  0  0  0  0  0
  -16.7687  -23.6873  -38.5884 C   0  0  0  0  0  0  0  0  0  0  0  0
  -18.6399  -25.1110  -38.0326 C   0  0  0  0  0  0  0  0  0  0  0  0
  -10.9221  -27.5494  -36.8293 C   0  0  0  0  0  0  0  0  0  0  0  0
   -8.4709  -29.9106  -34.4486 C   0  0  0  0  0  0  0  0  0  0  0  0
  -10.2083  -26.3495  -34.4141 C   0  0  0  0  0  0  0  0  0  0  0  0
  -16.5542  -25.2924  -36.7258 C   0  0  0  0  0  0  0  0  0  0  0  0
  -14.2843  -26.1936  -36.1317 C   0  0  0  0  0  0  0  0  0  0  0  0
   -6.0883  -32.7752  -35.0981 C   0  0  0  0  0  0  0  0  0  0  0  0
  -13.0614  -26.3893  -36.7824 N   0  0  0  0  0  0  0  0  0  0  0  0
  -15.2200  -25.6292  -37.0227 N   0  0  0  0  0  0  0  0  0  0  0  0
  -17.0593  -25.4664  -35.6034 O   0  0  0  0  0  0  0  0  0  0  0  0
  -14.5436  -26.4629  -34.9616 O   0  0  0  0  0  0  0  0  0  0  0  0
   -8.1090  -27.5167  -34.5032 O   0  0  0  0  0  0  0  0  0  0  0  0
  -15.5122  -23.2740  -38.3705 F   0  0  0  0  0  0  0  0  0  0  0  0
  -19.1905  -26.0726  -37.2780 F   0  0  0  0  0  0  0  0  0  0  0  0
  -11.2543  -28.1314  -37.9905 F   0  0  0  0  0  0  0  0  0  0  0  0
   -4.8971  -32.8242  -35.7649 F   0  0  0  0  0  0  0  0  0  0  0  0
   -5.8586  -33.4120  -33.9117 F   0  0  0  0  0  0  0  0  0  0  0  0
   -6.9314  -33.5917  -35.7946 F   0  0  0  0  0  0  0  0  0  0  0  0
  -10.1305  -29.7029  -34.0253 Cl  0  0  0  0  0  0  0  0  0  0  0  0
   -9.7921  -25.5932  -32.9205 Cl  0  0  0  0  0  0  0  0  0  0  0  0
  -19.4031  -23.0795  -40.6503 H   0  0  0  0  0  0  0  0  0  0  0  0
   -4.7493  -30.4327  -35.3998 H   0  0  0  0  0  0  0  0  0  0  0  0
   -5.6417  -28.1482  -35.1376 H   0  0  0  0  0  0  0  0  0  0  0  0
  -17.0758  -22.3288  -40.2315 H   0  0  0  0  0  0  0  0  0  0  0  0
  -20.4040  -24.8611  -39.2428 H   0  0  0  0  0  0  0  0  0  0  0  0
   -8.6118  -32.0657  -34.4474 H   0  0  0  0  0  0  0  0  0  0  0  0
  -12.1387  -25.3878  -34.5036 H   0  0  0  0  0  0  0  0  0  0  0  0
   -9.0007  -28.5113  -36.7488 H   0  0  0  0  0  0  0  0  0  0  0  0
  -13.0708  -26.3214  -37.7970 H   0  0  0  0  0  0  0  0  0  0  0  0
  -14.9008  -25.4482  -37.9697 H   0  0  0  0  0  0  0  0  0  0  0  0
  1  4  2  0  0  0  0
  1  5  1  0  0  0  0
  2  3  1  0  0  0  0
  2 10  2  0  0  0  0
  3 12  2  0  0  0  0
  4 14  1  0  0  0  0
  5 15  2  0  0  0  0
  6 10  1  0  0  0  0
  6 17  2  0  0  0  0
  7 11  2  0  0  0  0
  7 18  1  0  0  0  0
  8 13  1  0  0  0  0
  8 16  2  0  0  0  0
  9 14  2  0  0  0  0
  9 15  1  0  0  0  0
  9 19  1  0  0  0  0
 10 21  1  0  0  0  0
 11 16  1  0  0  0  0
 11 22  1  0  0  0  0
 12 17  1  0  0  0  0
 12 26  1  0  0  0  0
 13 18  2  0  0  0  0
 13 26  1  0  0  0  0
 14 27  1  0  0  0  0
 15 28  1  0  0  0  0
 16 29  1  0  0  0  0
 17 33  1  0  0  0  0
 18 34  1  0  0  0  0
 19 23  1  0  0  0  0
 19 24  2  0  0  0  0
 20 22  1  0  0  0  0
 20 23  1  0  0  0  0
 20 25  2  0  0  0  0
 21 30  1  0  0  0  0
 21 31  1  0  0  0  0
 21 32  1  0  0  0  0
  1 35  1  0  0  0  0
  2 36  1  0  0  0  0
  3 37  1  0  0  0  0
  4 38  1  0  0  0  0
  5 39  1  0  0  0  0
  6 40  1  0  0  0  0
  7 41  1  0  0  0  0
  8 42  1  0  0  0  0
 22 43  1  0  0  0  0
 23 44  1  0  0  0  0
M  END
> <Name>
IA_148.cdx

> <SourceTag>
IA_148

> <Gold.Version>
5.2

> <Gold.Id.Protein>
6HGV|6HGV_protein|mol2

> <Gold.Goldscore.Fitness>
64.0743

> <Gold.Goldscore.Internal.Vdw>
-4.6252

> <Gold.Goldscore.Internal.Torsion>
-9.3689

> <Gold.Goldscore.External.Vdw>
47.7357

> <Gold.Goldscore.Internal.HBond>
0.0000

> <Gold.Goldscore.External.HBond>
0.4401

> <Gold.Goldscore.Internal.Correction>
-11.9918

> <Gold.Goldscore.Hbonds>
donor molecule, donor type, donor heavy atom, donor atom, acceptor molecule, acceptor atom, score
      L1  H    22    43       P1  1931  0.12
      L1  H    23    44       P1  1931  0.10

> <Gold.Goldscore.Internal.Vdw.Weighted>
-4.6252

> <Gold.Goldscore.Internal.Torsion.Weighted>
-9.3689

> <Gold.Goldscore.External.Vdw.Weighted>
65.6365

> <Gold.Goldscore.Internal.HBond.Weighted>
0.0000

> <Gold.Goldscore.External.HBond.Weighted>
0.4401

> <Gold.Goldscore.Internal.Correction.Weighted>
-11.9918

> <Gold.Protein.RotatedTorsions>
[ 3781 1176 1175 1172 ] final -119.11 input   60.00 | X-H torsion
[ 3847 1247 1246 1244 ] final   91.61 input   60.00 | X-H torsion
[ 4507 1931 1930 1928 ] final -100.53 input   60.00 | X-H torsion
[ 3677 1070 1069 1066 ] final -110.98 input   60.00 | X-H torsion
[ 3525  925  924  922 ] final  -23.82 input   59.99 | X-H torsion
[ 4531 1957 1955 1953 ] final   28.02 input   60.00 | X-H torsion

> <Gold.Protein.ActiveResidues>
 PHE267  PRO268  MET310  ASP335  TRP336  MET339  TYR343  THR360  PRO361  ILE363 
 PRO371  SER374  ILE375  ASN378  PHE381  TYR383  GLN384  PHE387  LEU408  LEU417 
 MET419  LEU428  TYR466  MET469  ASN472  ASP496  VAL498  LEU499  MET503  HIS524 
 TRP525 

> <Gold.Protein.RotatedAtoms>
   -3.7490  -29.5121  -30.1219 H   0  0  0  0  0  0  0  0  0  0  0  0  # atno 3525 bound_to 925 
  -11.5801  -23.6679  -31.4439 H   0  0  0  0  0  0  0  0  0  0  0  0  # atno 3677 bound_to 1070
   -9.4764  -36.3186  -33.7645 H   0  0  0  0  0  0  0  0  0  0  0  0  # atno 3781 bound_to 1176
  -14.4655  -28.6713  -37.5611 H   0  0  0  0  0  0  0  0  0  0  0  0  # atno 3847 bound_to 1247
  -13.6205  -24.7610  -40.3671 H   0  0  0  0  0  0  0  0  0  0  0  0  # atno 4507 bound_to 1931
   -3.0696  -32.8997  -36.6555 H   0  0  0  0  0  0  0  0  0  0  0  0  # atno 4531 bound_to 1957
   -9.8280  -37.0737  -32.3666 LP  0  0  0  0  0  0  0  0  0  0  0  0  # atno 5205 bound_to 1176
  -10.8103  -37.2447  -33.6598 LP  0  0  0  0  0  0  0  0  0  0  0  0  # atno 5206 bound_to 1176
  -15.9878  -28.3512  -37.0834 LP  0  0  0  0  0  0  0  0  0  0  0  0  # atno 5215 bound_to 1247
  -15.1163  -27.2105  -37.8618 LP  0  0  0  0  0  0  0  0  0  0  0  0  # atno 5216 bound_to 1247
  -12.5236  -23.8061  -39.6369 LP  0  0  0  0  0  0  0  0  0  0  0  0  # atno 5217 bound_to 1931
  -13.0468  -25.1657  -38.8991 LP  0  0  0  0  0  0  0  0  0  0  0  0  # atno 5218 bound_to 1931
  -11.4605  -22.2318  -30.6878 LP  0  0  0  0  0  0  0  0  0  0  0  0  # atno 5224 bound_to 1070
  -12.8160  -23.1292  -30.5325 LP  0  0  0  0  0  0  0  0  0  0  0  0  # atno 5225 bound_to 1070

$$$$
IA_31|SeH_inactivess_minimized|sdf|117|dock4
  -GOLD-   4172121143D 1   1.00000     0.00000

 44 44  0  0  0  0  0  0  0  0  1 V2000
   -5.3255  -30.8319  -35.2390 C   0  0  0  0  0  0  0  0  0  0  0  0
   -5.9403  -29.6015  -35.0073 C   0  0  0  0  0  0  0  0  0  0  0  0
   -6.0922  -31.9351  -35.6144 C   0  0  0  0  0  0  0  0  0  0  0  0
   -8.0888  -30.5775  -35.5257 C   0  0  0  0  0  0  0  0  0  0  0  0
   -7.3221  -29.4743  -35.1506 C   0  0  0  0  0  0  0  0  0  0  0  0
   -7.4740  -31.8079  -35.7577 C   0  0  0  0  0  0  0  0  0  0  0  0
   -9.0791  -27.7015  -35.5409 C   0  0  0  0  0  0  0  0  0  0  0  0
  -14.2212  -26.0667  -35.7342 C   0  0  0  0  0  0  0  0  0  0  0  0
  -16.9792  -23.8577  -41.1918 C   0  0  0  0  0  0  0  0  0  0  0  0
  -17.3880  -23.6946  -39.7364 C   0  0  0  0  0  0  0  0  0  0  0  0
  -16.6584  -24.6900  -38.8349 C   0  0  0  0  0  0  0  0  0  0  0  0
  -17.1384  -24.5854  -37.3890 C   0  0  0  0  0  0  0  0  0  0  0  0
  -10.4942  -25.6385  -35.4717 C   0  0  0  0  0  0  0  0  0  0  0  0
  -11.8283  -26.2437  -35.0684 C   0  0  0  0  0  0  0  0  0  0  0  0
  -16.4164  -25.5737  -36.4841 C   0  0  0  0  0  0  0  0  0  0  0  0
   -7.9449  -28.2263  -34.9149 N   0  0  0  0  0  0  0  0  0  0  0  0
   -9.3810  -26.4326  -35.0257 N   0  0  0  0  0  0  0  0  0  0  0  0
  -12.9418  -25.5550  -35.6790 N   0  0  0  0  0  0  0  0  0  0  0  0
   -9.7451  -28.2415  -36.4207 O   0  0  0  0  0  0  0  0  0  0  0  0
  -14.5800  -27.1498  -35.2837 O   0  0  0  0  0  0  0  0  0  0  0  0
  -15.0544  -25.1844  -36.3731 O   0  0  0  0  0  0  0  0  0  0  0  0
   -8.4194  -33.1697  -36.2199 Cl  0  0  0  0  0  0  0  0  0  0  0  0
   -4.2494  -30.9310  -35.1275 H   0  0  0  0  0  0  0  0  0  0  0  0
   -5.3329  -28.7487  -34.7143 H   0  0  0  0  0  0  0  0  0  0  0  0
   -5.5990  -32.8874  -35.7910 H   0  0  0  0  0  0  0  0  0  0  0  0
   -9.1664  -30.4748  -35.6359 H   0  0  0  0  0  0  0  0  0  0  0  0
  -17.2968  -24.8300  -41.5819 H   0  0  0  0  0  0  0  0  0  0  0  0
  -17.4243  -23.0751  -41.8144 H   0  0  0  0  0  0  0  0  0  0  0  0
  -15.8910  -23.7917  -41.2894 H   0  0  0  0  0  0  0  0  0  0  0  0
  -18.4715  -23.8373  -39.6490 H   0  0  0  0  0  0  0  0  0  0  0  0
  -17.1684  -22.6701  -39.4141 H   0  0  0  0  0  0  0  0  0  0  0  0
  -16.8231  -25.7097  -39.2039 H   0  0  0  0  0  0  0  0  0  0  0  0
  -15.5786  -24.5014  -38.8781 H   0  0  0  0  0  0  0  0  0  0  0  0
  -18.2191  -24.7657  -37.3337 H   0  0  0  0  0  0  0  0  0  0  0  0
  -16.9847  -23.5673  -37.0104 H   0  0  0  0  0  0  0  0  0  0  0  0
  -10.3682  -24.6347  -35.0535 H   0  0  0  0  0  0  0  0  0  0  0  0
  -10.4254  -25.5730  -36.5618 H   0  0  0  0  0  0  0  0  0  0  0  0
  -11.8824  -27.2888  -35.3886 H   0  0  0  0  0  0  0  0  0  0  0  0
  -11.9722  -26.2051  -33.9838 H   0  0  0  0  0  0  0  0  0  0  0  0
  -16.4564  -26.5856  -36.8998 H   0  0  0  0  0  0  0  0  0  0  0  0
  -16.8589  -25.5818  -35.4830 H   0  0  0  0  0  0  0  0  0  0  0  0
   -7.5153  -27.6399  -34.2037 H   0  0  0  0  0  0  0  0  0  0  0  0
   -8.7797  -26.0530  -34.2968 H   0  0  0  0  0  0  0  0  0  0  0  0
  -12.7729  -24.6423  -36.0908 H   0  0  0  0  0  0  0  0  0  0  0  0
  1  2  2  0  0  0  0
  1  3  1  0  0  0  0
  2  5  1  0  0  0  0
  3  6  2  0  0  0  0
  4  5  2  0  0  0  0
  4  6  1  0  0  0  0
  5 16  1  0  0  0  0
  6 22  1  0  0  0  0
  7 16  1  0  0  0  0
  7 17  1  0  0  0  0
  7 19  2  0  0  0  0
  8 18  1  0  0  0  0
  8 20  2  0  0  0  0
  8 21  1  0  0  0  0
  9 10  1  0  0  0  0
 10 11  1  0  0  0  0
 11 12  1  0  0  0  0
 12 15  1  0  0  0  0
 13 14  1  0  0  0  0
 13 17  1  0  0  0  0
 14 18  1  0  0  0  0
 15 21  1  0  0  0  0
  1 23  1  0  0  0  0
  2 24  1  0  0  0  0
  3 25  1  0  0  0  0
  4 26  1  0  0  0  0
  9 27  1  0  0  0  0
  9 28  1  0  0  0  0
  9 29  1  0  0  0  0
 10 30  1  0  0  0  0
 10 31  1  0  0  0  0
 11 32  1  0  0  0  0
 11 33  1  0  0  0  0
 12 34  1  0  0  0  0
 12 35  1  0  0  0  0
 13 36  1  0  0  0  0
 13 37  1  0  0  0  0
 14 38  1  0  0  0  0
 14 39  1  0  0  0  0
 15 40  1  0  0  0  0
 15 41  1  0  0  0  0
 16 42  1  0  0  0  0
 17 43  1  0  0  0  0
 18 44  1  0  0  0  0
M  END
> <Name>
IA_31

> <SourceTag>
IA_31

> <Gold.Version>
5.2

> <Gold.Id.Protein>
6HGV|6HGV_protein|mol2

> <Gold.Goldscore.Fitness>
67.7101

> <Gold.Goldscore.Internal.Vdw>
-2.7536

> <Gold.Goldscore.Internal.Torsion>
-3.5502

> <Gold.Goldscore.External.Vdw>
49.2353

> <Gold.Goldscore.Internal.HBond>
0.0000

> <Gold.Goldscore.External.HBond>
0.4087

> <Gold.Goldscore.Internal.Correction>
-5.9066

> <Gold.Goldscore.Hbonds>
donor molecule, donor type, donor heavy atom, donor atom, acceptor molecule, acceptor atom, score
      L1  H    18    44       P1   854  0.07

> <Gold.Goldscore.Internal.Vdw.Weighted>
-2.7536

> <Gold.Goldscore.Internal.Torsion.Weighted>
-3.5502

> <Gold.Goldscore.External.Vdw.Weighted>
67.6986

> <Gold.Goldscore.Internal.HBond.Weighted>
0.0000

> <Gold.Goldscore.External.HBond.Weighted>
0.4087

> <Gold.Goldscore.Internal.Correction.Weighted>
-5.9066

> <Gold.Protein.RotatedTorsions>
[ 3781 1176 1175 1172 ] final  137.08 input   60.00 | X-H torsion
[ 3847 1247 1246 1244 ] final   26.92 input   60.00 | X-H torsion
[ 4507 1931 1930 1928 ] final   20.68 input   60.00 | X-H torsion
[ 3677 1070 1069 1066 ] final -106.91 input   60.00 | X-H torsion
[ 3525  925  924  922 ] final  -49.64 input   59.99 | X-H torsion
[ 4531 1957 1955 1953 ] final   31.93 input   60.00 | X-H torsion

> <Gold.Protein.ActiveResidues>
 PHE267  PRO268  MET310  ASP335  TRP336  MET339  TYR343  THR360  PRO361  ILE363 
 PRO371  SER374  ILE375  ASN378  PHE381  TYR383  GLN384  PHE387  LEU408  LEU417 
 MET419  LEU428  TYR466  MET469  ASN472  ASP496  VAL498  LEU499  MET503  HIS524 
 TRP525 

> <Gold.Protein.RotatedAtoms>
   -3.7526  -29.5486  -29.7053 H   0  0  0  0  0  0  0  0  0  0  0  0  # atno 3525 bound_to 925 
  -11.6363  -23.7028  -31.4361 H   0  0  0  0  0  0  0  0  0  0  0  0  # atno 3677 bound_to 1070
   -9.6227  -36.9175  -32.4261 H   0  0  0  0  0  0  0  0  0  0  0  0  # atno 3781 bound_to 1176
  -15.3313  -28.9237  -37.1248 H   0  0  0  0  0  0  0  0  0  0  0  0  # atno 3847 bound_to 1247
  -13.0318  -25.1511  -38.8965 H   0  0  0  0  0  0  0  0  0  0  0  0  # atno 4507 bound_to 1931
   -3.0832  -32.9621  -36.6540 H   0  0  0  0  0  0  0  0  0  0  0  0  # atno 4531 bound_to 1957
  -10.8367  -37.3527  -33.4186 LP  0  0  0  0  0  0  0  0  0  0  0  0  # atno 5205 bound_to 1176
   -9.6542  -36.3626  -33.9555 LP  0  0  0  0  0  0  0  0  0  0  0  0  # atno 5206 bound_to 1176
  -15.8725  -27.4309  -37.4807 LP  0  0  0  0  0  0  0  0  0  0  0  0  # atno 5215 bound_to 1247
  -14.3596  -27.8765  -37.9040 LP  0  0  0  0  0  0  0  0  0  0  0  0  # atno 5216 bound_to 1247
  -13.6324  -24.7776  -40.3621 LP  0  0  0  0  0  0  0  0  0  0  0  0  # atno 5217 bound_to 1931
  -12.5308  -23.8013  -39.6549 LP  0  0  0  0  0  0  0  0  0  0  0  0  # atno 5218 bound_to 1931
  -11.4110  -22.2560  -30.7260 LP  0  0  0  0  0  0  0  0  0  0  0  0  # atno 5224 bound_to 1070
  -12.8090  -23.0698  -30.5021 LP  0  0  0  0  0  0  0  0  0  0  0  0  # atno 5225 bound_to 1070

$$$$
IA_74.cdx|SeH_inactivess_minimized|sdf|152|dock6
  -GOLD-   4172122 83D 1   1.00000     0.00000

 26 25  0  0  0  0  0  0  0  0  1 V2000
  -10.5590  -27.4391  -36.1544 C   0  0  0  0  0  0  0  0  0  0  0  0
  -14.3072  -26.3186  -35.7124 C   0  0  0  0  0  0  0  0  0  0  0  0
  -10.1500  -25.2335  -33.8404 C   0  0  0  0  0  0  0  0  0  0  0  0
   -8.8273  -29.1223  -35.5669 C   0  0  0  0  0  0  0  0  0  0  0  0
  -13.4226  -26.0721  -36.9264 C   0  0  0  0  0  0  0  0  0  0  0  0
  -11.3520  -26.0133  -34.2528 C   0  0  0  0  0  0  0  0  0  0  0  0
  -12.0692  -25.4764  -36.5576 C   0  0  0  0  0  0  0  0  0  0  0  0
   -9.6761  -28.0001  -35.2358 N   0  0  0  0  0  0  0  0  0  0  0  0
  -11.3015  -26.3465  -35.6701 N   0  0  0  0  0  0  0  0  0  0  0  0
  -10.6670  -27.8696  -37.3067 O   0  0  0  0  0  0  0  0  0  0  0  0
  -14.4390  -25.4008  -35.1305 H   0  0  0  0  0  0  0  0  0  0  0  0
  -15.2965  -26.6624  -36.0308 H   0  0  0  0  0  0  0  0  0  0  0  0
  -13.8809  -27.0843  -35.0570 H   0  0  0  0  0  0  0  0  0  0  0  0
   -9.9109  -25.4123  -32.7864 H   0  0  0  0  0  0  0  0  0  0  0  0
   -9.2836  -25.4969  -34.4569 H   0  0  0  0  0  0  0  0  0  0  0  0
  -10.3418  -24.1613  -33.9663 H   0  0  0  0  0  0  0  0  0  0  0  0
   -8.2153  -29.3979  -34.7040 H   0  0  0  0  0  0  0  0  0  0  0  0
   -8.1665  -28.8639  -36.3988 H   0  0  0  0  0  0  0  0  0  0  0  0
   -9.4353  -29.9835  -35.8566 H   0  0  0  0  0  0  0  0  0  0  0  0
  -13.9405  -25.3824  -37.6028 H   0  0  0  0  0  0  0  0  0  0  0  0
  -13.2838  -27.0151  -37.4683 H   0  0  0  0  0  0  0  0  0  0  0  0
  -12.2634  -25.4337  -34.0783 H   0  0  0  0  0  0  0  0  0  0  0  0
  -11.4174  -26.9505  -33.6922 H   0  0  0  0  0  0  0  0  0  0  0  0
  -11.4670  -25.3282  -37.4595 H   0  0  0  0  0  0  0  0  0  0  0  0
  -12.1833  -24.5077  -36.0610 H   0  0  0  0  0  0  0  0  0  0  0  0
   -9.6268  -27.6082  -34.3029 H   0  0  0  0  0  0  0  0  0  0  0  0
  1  8  1  0  0  0  0
  1  9  1  0  0  0  0
  1 10  2  0  0  0  0
  2  5  1  0  0  0  0
  3  6  1  0  0  0  0
  4  8  1  0  0  0  0
  5  7  1  0  0  0  0
  6  9  1  0  0  0  0
  7  9  1  0  0  0  0
  2 11  1  0  0  0  0
  2 12  1  0  0  0  0
  2 13  1  0  0  0  0
  3 14  1  0  0  0  0
  3 15  1  0  0  0  0
  3 16  1  0  0  0  0
  4 17  1  0  0  0  0
  4 18  1  0  0  0  0
  4 19  1  0  0  0  0
  5 20  1  0  0  0  0
  5 21  1  0  0  0  0
  6 22  1  0  0  0  0
  6 23  1  0  0  0  0
  7 24  1  0  0  0  0
  7 25  1  0  0  0  0
  8 26  1  0  0  0  0
M  END
> <Name>
IA_74.cdx

> <SourceTag>
IA_74

> <Gold.Version>
5.2

> <Gold.Id.Protein>
6HGV|6HGV_protein|mol2

> <Gold.Goldscore.Fitness>
36.1754

> <Gold.Goldscore.Internal.Vdw>
-11.6175

> <Gold.Goldscore.Internal.Torsion>
-4.4142

> <Gold.Goldscore.External.Vdw>
27.2369

> <Gold.Goldscore.Internal.HBond>
0.0000

> <Gold.Goldscore.External.HBond>
0.0000

> <Gold.Goldscore.Internal.Correction>
-14.7564

> <Gold.Goldscore.Internal.Vdw.Weighted>
-11.6175

> <Gold.Goldscore.Internal.Torsion.Weighted>
-4.4142

> <Gold.Goldscore.External.Vdw.Weighted>
37.4508

> <Gold.Goldscore.Internal.HBond.Weighted>
0.0000

> <Gold.Goldscore.External.HBond.Weighted>
0.0000

> <Gold.Goldscore.Internal.Correction.Weighted>
-14.7564

> <Gold.Protein.RotatedTorsions>
[ 3781 1176 1175 1172 ] final   92.80 input   60.00 | X-H torsion
[ 3847 1247 1246 1244 ] final   34.86 input   60.00 | X-H torsion
[ 4507 1931 1930 1928 ] final  118.16 input   60.00 | X-H torsion
[ 3677 1070 1069 1066 ] final -110.19 input   60.00 | X-H torsion
[ 3525  925  924  922 ] final  -43.54 input   59.99 | X-H torsion
[ 4531 1957 1955 1953 ] final -167.13 input   60.00 | X-H torsion

> <Gold.Protein.ActiveResidues>
 PHE267  PRO268  MET310  ASP335  TRP336  MET339  TYR343  THR360  PRO361  ILE363 
 PRO371  SER374  ILE375  ASN378  PHE381  TYR383  GLN384  PHE387  LEU408  LEU417 
 MET419  LEU428  TYR466  MET469  ASN472  ASP496  VAL498  LEU499  MET503  HIS524 
 TRP525 

> <Gold.Protein.RotatedAtoms>
   -3.7674  -29.5333  -29.8025 H   0  0  0  0  0  0  0  0  0  0  0  0  # atno 3525 bound_to 925 
  -11.5909  -23.6749  -31.4426 H   0  0  0  0  0  0  0  0  0  0  0  0  # atno 3677 bound_to 1070
  -10.2135  -37.3028  -32.4496 H   0  0  0  0  0  0  0  0  0  0  0  0  # atno 3781 bound_to 1176
  -15.2100  -28.9509  -37.1620 H   0  0  0  0  0  0  0  0  0  0  0  0  # atno 3847 bound_to 1247
  -12.4418  -23.9494  -39.3312 H   0  0  0  0  0  0  0  0  0  0  0  0  # atno 4507 bound_to 1931
   -1.3798  -33.5920  -36.9887 H   0  0  0  0  0  0  0  0  0  0  0  0  # atno 4531 bound_to 1957
  -10.6229  -36.9945  -33.9940 LP  0  0  0  0  0  0  0  0  0  0  0  0  # atno 5205 bound_to 1176
   -9.2731  -36.3327  -33.3565 LP  0  0  0  0  0  0  0  0  0  0  0  0  # atno 5206 bound_to 1176
  -15.9435  -27.5211  -37.4183 LP  0  0  0  0  0  0  0  0  0  0  0  0  # atno 5215 bound_to 1247
  -14.4107  -27.7589  -37.9290 LP  0  0  0  0  0  0  0  0  0  0  0  0  # atno 5216 bound_to 1247
  -13.2793  -25.3259  -39.1035 LP  0  0  0  0  0  0  0  0  0  0  0  0  # atno 5217 bound_to 1931
  -13.4781  -24.4633  -40.4757 LP  0  0  0  0  0  0  0  0  0  0  0  0  # atno 5218 bound_to 1931
  -11.4507  -22.2362  -30.6952 LP  0  0  0  0  0  0  0  0  0  0  0  0  # atno 5224 bound_to 1070
  -12.8150  -23.1177  -30.5264 LP  0  0  0  0  0  0  0  0  0  0  0  0  # atno 5225 bound_to 1070

$$$$
IA_30|SeH_inactivess_minimized|sdf|116|dock5
  -GOLD-   4172121133D 1   1.00000     0.00000

 46 46  0  0  0  0  0  0  0  0  1 V2000
  -19.2012  -25.0671  -35.6429 C   0  0  0  0  0  0  0  0  0  0  0  0
  -17.8160  -25.2233  -35.6932 C   0  0  0  0  0  0  0  0  0  0  0  0
  -19.9156  -24.7970  -36.8102 C   0  0  0  0  0  0  0  0  0  0  0  0
  -17.8594  -24.8385  -38.0781 C   0  0  0  0  0  0  0  0  0  0  0  0
  -17.1451  -25.1088  -36.9109 C   0  0  0  0  0  0  0  0  0  0  0  0
  -19.2447  -24.6826  -38.0278 C   0  0  0  0  0  0  0  0  0  0  0  0
   -9.7253  -27.9440  -35.6897 C   0  0  0  0  0  0  0  0  0  0  0  0
  -14.9141  -25.9000  -36.0280 C   0  0  0  0  0  0  0  0  0  0  0  0
   -3.8794  -32.6855  -34.6820 C   0  0  0  0  0  0  0  0  0  0  0  0
   -8.5484  -28.3520  -34.8188 C   0  0  0  0  0  0  0  0  0  0  0  0
   -4.5680  -31.4206  -34.1954 C   0  0  0  0  0  0  0  0  0  0  0  0
   -7.7454  -29.5250  -35.3795 C   0  0  0  0  0  0  0  0  0  0  0  0
   -5.7426  -31.0399  -35.0963 C   0  0  0  0  0  0  0  0  0  0  0  0
   -6.5009  -29.8327  -34.5409 C   0  0  0  0  0  0  0  0  0  0  0  0
  -11.1357  -25.9636  -36.2183 C   0  0  0  0  0  0  0  0  0  0  0  0
  -12.4878  -26.4114  -35.6892 C   0  0  0  0  0  0  0  0  0  0  0  0
  -15.7403  -25.2667  -36.9610 N   0  0  0  0  0  0  0  0  0  0  0  0
  -10.0405  -26.6028  -35.5260 N   0  0  0  0  0  0  0  0  0  0  0  0
  -13.5749  -25.8453  -36.4412 N   0  0  0  0  0  0  0  0  0  0  0  0
  -10.3239  -28.7261  -36.4231 O   0  0  0  0  0  0  0  0  0  0  0  0
  -15.2695  -26.4395  -34.9831 O   0  0  0  0  0  0  0  0  0  0  0  0
  -20.1266  -24.3483  -39.4674 Cl  0  0  0  0  0  0  0  0  0  0  0  0
  -19.7238  -25.1563  -34.6947 H   0  0  0  0  0  0  0  0  0  0  0  0
  -17.2694  -25.4326  -34.7771 H   0  0  0  0  0  0  0  0  0  0  0  0
  -20.9945  -24.6774  -36.7551 H   0  0  0  0  0  0  0  0  0  0  0  0
  -17.3327  -24.7493  -39.0259 H   0  0  0  0  0  0  0  0  0  0  0  0
   -4.5269  -33.5587  -34.5544 H   0  0  0  0  0  0  0  0  0  0  0  0
   -2.9500  -32.8631  -34.1313 H   0  0  0  0  0  0  0  0  0  0  0  0
   -3.6331  -32.5977  -35.7447 H   0  0  0  0  0  0  0  0  0  0  0  0
   -7.8953  -27.4856  -34.6619 H   0  0  0  0  0  0  0  0  0  0  0  0
   -8.9582  -28.6376  -33.8421 H   0  0  0  0  0  0  0  0  0  0  0  0
   -4.9212  -31.5754  -33.1694 H   0  0  0  0  0  0  0  0  0  0  0  0
   -3.8390  -30.6022  -34.1677 H   0  0  0  0  0  0  0  0  0  0  0  0
   -8.3909  -30.4119  -35.3923 H   0  0  0  0  0  0  0  0  0  0  0  0
   -7.4562  -29.3265  -36.4186 H   0  0  0  0  0  0  0  0  0  0  0  0
   -5.3740  -30.8103  -36.1036 H   0  0  0  0  0  0  0  0  0  0  0  0
   -6.4259  -31.8929  -35.1888 H   0  0  0  0  0  0  0  0  0  0  0  0
   -5.8344  -28.9630  -34.5214 H   0  0  0  0  0  0  0  0  0  0  0  0
   -6.7990  -30.0328  -33.5044 H   0  0  0  0  0  0  0  0  0  0  0  0
  -11.0032  -24.8823  -36.1120 H   0  0  0  0  0  0  0  0  0  0  0  0
  -11.0415  -26.2236  -37.2771 H   0  0  0  0  0  0  0  0  0  0  0  0
  -12.5808  -27.4995  -35.7598 H   0  0  0  0  0  0  0  0  0  0  0  0
  -12.6237  -26.1185  -34.6431 H   0  0  0  0  0  0  0  0  0  0  0  0
  -15.2750  -24.8716  -37.7744 H   0  0  0  0  0  0  0  0  0  0  0  0
   -9.5057  -26.0423  -34.8689 H   0  0  0  0  0  0  0  0  0  0  0  0
  -13.3608  -25.3794  -37.3213 H   0  0  0  0  0  0  0  0  0  0  0  0
  1  2  2  0  0  0  0
  1  3  1  0  0  0  0
  2  5  1  0  0  0  0
  3  6  2  0  0  0  0
  4  5  2  0  0  0  0
  4  6  1  0  0  0  0
  5 17  1  0  0  0  0
  6 22  1  0  0  0  0
  7 10  1  0  0  0  0
  7 18  1  0  0  0  0
  7 20  2  0  0  0  0
  8 17  1  0  0  0  0
  8 19  1  0  0  0  0
  8 21  2  0  0  0  0
  9 11  1  0  0  0  0
 10 12  1  0  0  0  0
 11 13  1  0  0  0  0
 12 14  1  0  0  0  0
 13 14  1  0  0  0  0
 15 16  1  0  0  0  0
 15 18  1  0  0  0  0
 16 19  1  0  0  0  0
  1 23  1  0  0  0  0
  2 24  1  0  0  0  0
  3 25  1  0  0  0  0
  4 26  1  0  0  0  0
  9 27  1  0  0  0  0
  9 28  1  0  0  0  0
  9 29  1  0  0  0  0
 10 30  1  0  0  0  0
 10 31  1  0  0  0  0
 11 32  1  0  0  0  0
 11 33  1  0  0  0  0
 12 34  1  0  0  0  0
 12 35  1  0  0  0  0
 13 36  1  0  0  0  0
 13 37  1  0  0  0  0
 14 38  1  0  0  0  0
 14 39  1  0  0  0  0
 15 40  1  0  0  0  0
 15 41  1  0  0  0  0
 16 42  1  0  0  0  0
 16 43  1  0  0  0  0
 17 44  1  0  0  0  0
 18 45  1  0  0  0  0
 19 46  1  0  0  0  0
M  END
> <Name>
IA_30

> <SourceTag>
IA_30

> <Gold.Version>
5.2

> <Gold.Id.Protein>
6HGV|6HGV_protein|mol2

> <Gold.Goldscore.Fitness>
68.3889

> <Gold.Goldscore.Internal.Vdw>
-5.4941

> <Gold.Goldscore.Internal.Torsion>
-3.2228

> <Gold.Goldscore.External.Vdw>
50.3540

> <Gold.Goldscore.Internal.HBond>
0.0000

> <Gold.Goldscore.External.HBond>
1.1874

> <Gold.Goldscore.Internal.Correction>
-6.6817

> <Gold.Goldscore.Hbonds>
donor molecule, donor type, donor heavy atom, donor atom, acceptor molecule, acceptor atom, score
      P1  H  1256  3854       L1    20  0.01
      L1  H    17    44       P1  1931  0.02
      L1  H    19    46       P1  1931  0.56

> <Gold.Goldscore.Internal.Vdw.Weighted>
-5.4941

> <Gold.Goldscore.Internal.Torsion.Weighted>
-3.2228

> <Gold.Goldscore.External.Vdw.Weighted>
69.2367

> <Gold.Goldscore.Internal.HBond.Weighted>
0.0000

> <Gold.Goldscore.External.HBond.Weighted>
1.1874

> <Gold.Goldscore.Internal.Correction.Weighted>
-6.6817

> <Gold.Protein.RotatedTorsions>
[ 3781 1176 1175 1172 ] final   34.04 input   60.00 | X-H torsion
[ 3847 1247 1246 1244 ] final  123.74 input   60.00 | X-H torsion
[ 4507 1931 1930 1928 ] final  103.33 input   60.00 | X-H torsion
[ 3677 1070 1069 1066 ] final -114.74 input   60.00 | X-H torsion
[ 3525  925  924  922 ] final   43.83 input   59.99 | X-H torsion
[ 4531 1957 1955 1953 ] final  -99.67 input   60.00 | X-H torsion

> <Gold.Protein.ActiveResidues>
 PHE267  PRO268  MET310  ASP335  TRP336  MET339  TYR343  THR360  PRO361  ILE363 
 PRO371  SER374  ILE375  ASN378  PHE381  TYR383  GLN384  PHE387  LEU408  LEU417 
 MET419  LEU428  TYR466  MET469  ASN472  ASP496  VAL498  LEU499  MET503  HIS524 
 TRP525 

> <Gold.Protein.RotatedAtoms>
   -3.0466  -29.7513  -30.8540 H   0  0  0  0  0  0  0  0  0  0  0  0  # atno 3525 bound_to 925 
  -11.5300  -23.6327  -31.4485 H   0  0  0  0  0  0  0  0  0  0  0  0  # atno 3677 bound_to 1070
  -10.7897  -37.4232  -33.1547 H   0  0  0  0  0  0  0  0  0  0  0  0  # atno 3781 bound_to 1176
  -14.3105  -28.2329  -37.7897 H   0  0  0  0  0  0  0  0  0  0  0  0  # atno 3847 bound_to 1247
  -12.4333  -24.0970  -39.1399 H   0  0  0  0  0  0  0  0  0  0  0  0  # atno 4507 bound_to 1931
   -1.4523  -32.5552  -36.9570 H   0  0  0  0  0  0  0  0  0  0  0  0  # atno 4531 bound_to 1957
   -9.8756  -36.4586  -34.0938 LP  0  0  0  0  0  0  0  0  0  0  0  0  # atno 5205 bound_to 1176
   -9.4400  -36.7474  -32.5467 LP  0  0  0  0  0  0  0  0  0  0  0  0  # atno 5206 bound_to 1176
  -15.6636  -28.7591  -37.0546 LP  0  0  0  0  0  0  0  0  0  0  0  0  # atno 5215 bound_to 1247
  -15.5965  -27.2441  -37.6605 LP  0  0  0  0  0  0  0  0  0  0  0  0  # atno 5216 bound_to 1247
  -13.4258  -25.3777  -39.2909 LP  0  0  0  0  0  0  0  0  0  0  0  0  # atno 5217 bound_to 1931
  -13.3401  -24.2628  -40.4809 LP  0  0  0  0  0  0  0  0  0  0  0  0  # atno 5218 bound_to 1931
  -11.5084  -22.2130  -30.6535 LP  0  0  0  0  0  0  0  0  0  0  0  0  # atno 5224 bound_to 1070
  -12.8186  -23.1834  -30.5621 LP  0  0  0  0  0  0  0  0  0  0  0  0  # atno 5225 bound_to 1070

$$$$
IA_134.cdx|SeH_inactivess_minimized|sdf|36|dock3
  -GOLD-   4172119223D 1   1.00000     0.00000

 30 31  0  0  0  0  0  0  0  0  1 V2000
  -18.1163  -24.2212  -40.5704 C   0  0  0  0  0  0  0  0  0  0  0  0
  -16.7248  -24.2256  -40.5948 C   0  0  0  0  0  0  0  0  0  0  0  0
  -18.0347  -25.1124  -35.7879 C   0  0  0  0  0  0  0  0  0  0  0  0
  -18.7945  -24.4402  -39.3709 C   0  0  0  0  0  0  0  0  0  0  0  0
  -16.0061  -24.4489  -39.4202 C   0  0  0  0  0  0  0  0  0  0  0  0
  -18.7534  -24.8890  -36.9627 C   0  0  0  0  0  0  0  0  0  0  0  0
  -16.6432  -25.1167  -35.8125 C   0  0  0  0  0  0  0  0  0  0  0  0
  -18.0872  -24.6668  -38.1789 C   0  0  0  0  0  0  0  0  0  0  0  0
  -16.6722  -24.6712  -38.2039 C   0  0  0  0  0  0  0  0  0  0  0  0
  -15.9650  -24.8978  -37.0119 C   0  0  0  0  0  0  0  0  0  0  0  0
  -13.7207  -25.7677  -36.2458 C   0  0  0  0  0  0  0  0  0  0  0  0
  -10.6914  -25.3865  -34.7462 C   0  0  0  0  0  0  0  0  0  0  0  0
  -11.2832  -26.1721  -35.8666 C   0  0  0  0  0  0  0  0  0  0  0  0
  -14.5655  -24.9127  -36.9762 N   0  0  0  0  0  0  0  0  0  0  0  0
  -12.3776  -25.4581  -36.4830 N   0  0  0  0  0  0  0  0  0  0  0  0
  -14.0788  -26.6718  -35.4947 O   0  0  0  0  0  0  0  0  0  0  0  0
  -18.6753  -24.0474  -41.4852 H   0  0  0  0  0  0  0  0  0  0  0  0
  -16.1977  -24.0547  -41.5291 H   0  0  0  0  0  0  0  0  0  0  0  0
  -18.5624  -25.2828  -34.8540 H   0  0  0  0  0  0  0  0  0  0  0  0
  -19.8824  -24.4327  -39.3753 H   0  0  0  0  0  0  0  0  0  0  0  0
  -14.9202  -24.4441  -39.4816 H   0  0  0  0  0  0  0  0  0  0  0  0
  -19.8406  -24.8896  -36.9199 H   0  0  0  0  0  0  0  0  0  0  0  0
  -16.0967  -25.2922  -34.8891 H   0  0  0  0  0  0  0  0  0  0  0  0
  -11.4550  -25.1274  -34.0046 H   0  0  0  0  0  0  0  0  0  0  0  0
   -9.8888  -25.9487  -34.2567 H   0  0  0  0  0  0  0  0  0  0  0  0
  -10.2645  -24.4530  -35.1320 H   0  0  0  0  0  0  0  0  0  0  0  0
  -11.6714  -27.1277  -35.5017 H   0  0  0  0  0  0  0  0  0  0  0  0
  -10.5352  -26.3680  -36.6406 H   0  0  0  0  0  0  0  0  0  0  0  0
  -14.0873  -24.2157  -37.5530 H   0  0  0  0  0  0  0  0  0  0  0  0
  -12.1615  -24.6960  -37.1178 H   0  0  0  0  0  0  0  0  0  0  0  0
  1  2  1  0  0  0  0
  1  4  2  0  0  0  0
  2  5  2  0  0  0  0
  3  6  2  0  0  0  0
  3  7  1  0  0  0  0
  4  8  1  0  0  0  0
  5  9  1  0  0  0  0
  6  8  1  0  0  0  0
  7 10  2  0  0  0  0
  8  9  2  0  0  0  0
  9 10  1  0  0  0  0
 10 14  1  0  0  0  0
 11 14  1  0  0  0  0
 11 15  1  0  0  0  0
 11 16  2  0  0  0  0
 12 13  1  0  0  0  0
 13 15  1  0  0  0  0
  1 17  1  0  0  0  0
  2 18  1  0  0  0  0
  3 19  1  0  0  0  0
  4 20  1  0  0  0  0
  5 21  1  0  0  0  0
  6 22  1  0  0  0  0
  7 23  1  0  0  0  0
 12 24  1  0  0  0  0
 12 25  1  0  0  0  0
 12 26  1  0  0  0  0
 13 27  1  0  0  0  0
 13 28  1  0  0  0  0
 14 29  1  0  0  0  0
 15 30  1  0  0  0  0
M  END
> <Name>
IA_134.cdx

> <SourceTag>
IA_134

> <Gold.Version>
5.2

> <Gold.Id.Protein>
6HGV|6HGV_protein|mol2

> <Gold.Goldscore.Fitness>
49.0075

> <Gold.Goldscore.Internal.Vdw>
-2.7962

> <Gold.Goldscore.Internal.Torsion>
-3.2064

> <Gold.Goldscore.External.Vdw>
35.9272

> <Gold.Goldscore.Internal.HBond>
0.0000

> <Gold.Goldscore.External.HBond>
0.0000

> <Gold.Goldscore.Internal.Correction>
-5.6102

> <Gold.Goldscore.Internal.Vdw.Weighted>
-2.7962

> <Gold.Goldscore.Internal.Torsion.Weighted>
-3.2064

> <Gold.Goldscore.External.Vdw.Weighted>
49.3999

> <Gold.Goldscore.Internal.HBond.Weighted>
0.0000

> <Gold.Goldscore.External.HBond.Weighted>
0.0000

> <Gold.Goldscore.Internal.Correction.Weighted>
-5.6102

> <Gold.Protein.RotatedTorsions>
[ 3781 1176 1175 1172 ] final  130.40 input   60.00 | X-H torsion
[ 3847 1247 1246 1244 ] final  -69.75 input   60.00 | X-H torsion
[ 4507 1931 1930 1928 ] final  133.67 input   60.00 | X-H torsion
[ 3677 1070 1069 1066 ] final -114.59 input   60.00 | X-H torsion
[ 3525  925  924  922 ] final -138.01 input   59.99 | X-H torsion
[ 4531 1957 1955 1953 ] final  122.74 input   60.00 | X-H torsion

> <Gold.Protein.ActiveResidues>
 PHE267  PRO268  MET310  ASP335  TRP336  MET339  TYR343  THR360  PRO361  ILE363 
 PRO371  SER374  ILE375  ASN378  PHE381  TYR383  GLN384  PHE387  LEU408  LEU417 
 MET419  LEU428  TYR466  MET469  ASN472  ASP496  VAL498  LEU499  MET503  HIS524 
 TRP525 

> <Gold.Protein.RotatedAtoms>
   -2.7536  -30.0460  -29.0285 H   0  0  0  0  0  0  0  0  0  0  0  0  # atno 3525 bound_to 925 
  -11.5320  -23.6342  -31.4484 H   0  0  0  0  0  0  0  0  0  0  0  0  # atno 3677 bound_to 1070
   -9.7044  -36.9833  -32.3960 H   0  0  0  0  0  0  0  0  0  0  0  0  # atno 3781 bound_to 1176
  -16.0336  -27.7278  -37.3066 H   0  0  0  0  0  0  0  0  0  0  0  0  # atno 3847 bound_to 1247
  -12.4949  -23.8401  -39.5526 H   0  0  0  0  0  0  0  0  0  0  0  0  # atno 4507 bound_to 1931
   -2.3355  -34.0543  -36.8150 H   0  0  0  0  0  0  0  0  0  0  0  0  # atno 4531 bound_to 1957
  -10.8335  -37.3123  -33.5207 LP  0  0  0  0  0  0  0  0  0  0  0  0  # atno 5205 bound_to 1176
   -9.5752  -36.3368  -33.8838 LP  0  0  0  0  0  0  0  0  0  0  0  0  # atno 5206 bound_to 1176
  -14.5510  -27.5505  -37.9536 LP  0  0  0  0  0  0  0  0  0  0  0  0  # atno 5215 bound_to 1247
  -14.9738  -28.9613  -37.2480 LP  0  0  0  0  0  0  0  0  0  0  0  0  # atno 5216 bound_to 1247
  -13.1112  -25.2185  -38.9457 LP  0  0  0  0  0  0  0  0  0  0  0  0  # atno 5217 bound_to 1931
  -13.5927  -24.6808  -40.4105 LP  0  0  0  0  0  0  0  0  0  0  0  0  # atno 5218 bound_to 1931
  -11.5065  -22.2137  -30.6549 LP  0  0  0  0  0  0  0  0  0  0  0  0  # atno 5224 bound_to 1070
  -12.8186  -23.1812  -30.5608 LP  0  0  0  0  0  0  0  0  0  0  0  0  # atno 5225 bound_to 1070

$$$$
IA_130.cdx|SeH_inactivess_minimized|sdf|32|dock2
  -GOLD-   4172119153D 1   1.00000     0.00000

 30 30  0  0  0  0  0  0  0  0  1 V2000
  -16.6138  -23.4442  -38.4708 C   0  0  0  0  0  0  0  0  0  0  0  0
  -17.9419  -23.0336  -38.5866 C   0  0  0  0  0  0  0  0  0  0  0  0
  -17.2242  -24.9034  -36.6445 C   0  0  0  0  0  0  0  0  0  0  0  0
  -16.2550  -24.3792  -37.4997 C   0  0  0  0  0  0  0  0  0  0  0  0
  -18.9110  -23.5580  -37.7314 C   0  0  0  0  0  0  0  0  0  0  0  0
  -18.5522  -24.4929  -36.7604 C   0  0  0  0  0  0  0  0  0  0  0  0
   -9.1586  -26.2925  -34.1739 C   0  0  0  0  0  0  0  0  0  0  0  0
  -14.2556  -25.2799  -36.2460 C   0  0  0  0  0  0  0  0  0  0  0  0
  -10.3614  -25.5218  -33.6757 C   0  0  0  0  0  0  0  0  0  0  0  0
  -11.2584  -25.0057  -34.8038 C   0  0  0  0  0  0  0  0  0  0  0  0
  -11.9958  -26.1052  -35.5669 C   0  0  0  0  0  0  0  0  0  0  0  0
  -14.9084  -24.7957  -37.3831 N   0  0  0  0  0  0  0  0  0  0  0  0
  -12.9188  -25.5866  -36.5395 N   0  0  0  0  0  0  0  0  0  0  0  0
   -8.0161  -25.8615  -34.2423 O   0  0  0  0  0  0  0  0  0  0  0  0
  -14.7450  -25.4315  -35.1293 O   0  0  0  0  0  0  0  0  0  0  0  0
   -9.4930  -27.5621  -34.5251 O   0  0  0  0  0  0  0  0  0  0  0  0
  -20.5384  -23.0072  -37.9229 Cl  0  0  0  0  0  0  0  0  0  0  0  0
  -19.7068  -25.1769  -35.6704 Cl  0  0  0  0  0  0  0  0  0  0  0  0
  -15.8667  -23.0306  -39.1432 H   0  0  0  0  0  0  0  0  0  0  0  0
  -18.2037  -22.3053  -39.3501 H   0  0  0  0  0  0  0  0  0  0  0  0
  -16.9380  -25.6315  -35.8881 H   0  0  0  0  0  0  0  0  0  0  0  0
  -10.9345  -26.1569  -32.9928 H   0  0  0  0  0  0  0  0  0  0  0  0
   -9.9804  -24.6630  -33.1108 H   0  0  0  0  0  0  0  0  0  0  0  0
  -11.9932  -24.3124  -34.3755 H   0  0  0  0  0  0  0  0  0  0  0  0
  -10.6538  -24.4295  -35.5148 H   0  0  0  0  0  0  0  0  0  0  0  0
  -12.5545  -26.7653  -34.8977 H   0  0  0  0  0  0  0  0  0  0  0  0
  -11.2719  -26.7159  -36.1162 H   0  0  0  0  0  0  0  0  0  0  0  0
  -14.3521  -24.7342  -38.2322 H   0  0  0  0  0  0  0  0  0  0  0  0
  -12.5851  -25.4340  -37.4896 H   0  0  0  0  0  0  0  0  0  0  0  0
   -8.7404  -28.1284  -34.8007 H   0  0  0  0  0  0  0  0  0  0  0  0
  1  2  1  0  0  0  0
  1  4  2  0  0  0  0
  2  5  2  0  0  0  0
  3  4  1  0  0  0  0
  3  6  2  0  0  0  0
  4 12  1  0  0  0  0
  5  6  1  0  0  0  0
  5 17  1  0  0  0  0
  6 18  1  0  0  0  0
  7  9  1  0  0  0  0
  7 14  2  0  0  0  0
  7 16  1  0  0  0  0
  8 12  1  0  0  0  0
  8 13  1  0  0  0  0
  8 15  2  0  0  0  0
  9 10  1  0  0  0  0
 10 11  1  0  0  0  0
 11 13  1  0  0  0  0
  1 19  1  0  0  0  0
  2 20  1  0  0  0  0
  3 21  1  0  0  0  0
  9 22  1  0  0  0  0
  9 23  1  0  0  0  0
 10 24  1  0  0  0  0
 10 25  1  0  0  0  0
 11 26  1  0  0  0  0
 11 27  1  0  0  0  0
 12 28  1  0  0  0  0
 13 29  1  0  0  0  0
 16 30  1  0  0  0  0
M  END
> <Name>
IA_130.cdx

> <SourceTag>
IA_130

> <Gold.Version>
5.2

> <Gold.Id.Protein>
6HGV|6HGV_protein|mol2

> <Gold.Goldscore.Fitness>
58.9113

> <Gold.Goldscore.Internal.Vdw>
-1.3969

> <Gold.Goldscore.Internal.Torsion>
-2.8161

> <Gold.Goldscore.External.Vdw>
41.9471

> <Gold.Goldscore.Internal.HBond>
0.0000

> <Gold.Goldscore.External.HBond>
2.6966

> <Gold.Goldscore.Internal.Correction>
-2.7504

> <Gold.Goldscore.Hbonds>
donor molecule, donor type, donor heavy atom, donor atom, acceptor molecule, acceptor atom, score
      L1  H    12    28       P1  1931  0.97
      L1  H    13    29       P1  1931  0.37

> <Gold.Goldscore.Internal.Vdw.Weighted>
-1.3969

> <Gold.Goldscore.Internal.Torsion.Weighted>
-2.8161

> <Gold.Goldscore.External.Vdw.Weighted>
57.6772

> <Gold.Goldscore.Internal.HBond.Weighted>
0.0000

> <Gold.Goldscore.External.HBond.Weighted>
2.6966

> <Gold.Goldscore.Internal.Correction.Weighted>
-2.7504

> <Gold.Protein.RotatedTorsions>
[ 3781 1176 1175 1172 ] final  176.90 input   60.00 | X-H torsion
[ 3847 1247 1246 1244 ] final  -88.04 input   60.00 | X-H torsion
[ 4507 1931 1930 1928 ] final  156.05 input   60.00 | X-H torsion
[ 3677 1070 1069 1066 ] final  -95.36 input   60.00 | X-H torsion
[ 3525  925  924  922 ] final    8.08 input   59.99 | X-H torsion
[ 4531 1957 1955 1953 ] final  141.98 input   60.00 | X-H torsion

> <Gold.Protein.ActiveResidues>
 PHE267  PRO268  MET310  ASP335  TRP336  MET339  TYR343  THR360  PRO361  ILE363 
 PRO371  SER374  ILE375  ASN378  PHE381  TYR383  GLN384  PHE387  LEU408  LEU417 
 MET419  LEU428  TYR466  MET469  ASN472  ASP496  VAL498  LEU499  MET503  HIS524 
 TRP525 

> <Gold.Protein.RotatedAtoms>
   -3.5173  -29.5714  -30.5775 H   0  0  0  0  0  0  0  0  0  0  0  0  # atno 3525 bound_to 925 
  -11.8031  -23.7822  -31.3994 H   0  0  0  0  0  0  0  0  0  0  0  0  # atno 3677 bound_to 1070
   -9.2845  -36.5451  -32.8178 H   0  0  0  0  0  0  0  0  0  0  0  0  # atno 3781 bound_to 1176
  -15.9149  -27.4918  -37.4435 H   0  0  0  0  0  0  0  0  0  0  0  0  # atno 3847 bound_to 1247
  -12.6428  -23.7784  -39.8787 H   0  0  0  0  0  0  0  0  0  0  0  0  # atno 4507 bound_to 1931
   -2.0281  -34.0543  -36.8735 H   0  0  0  0  0  0  0  0  0  0  0  0  # atno 4531 bound_to 1957
  -10.6391  -37.4469  -32.8150 LP  0  0  0  0  0  0  0  0  0  0  0  0  # atno 5205 bound_to 1176
  -10.1925  -36.6434  -34.1647 LP  0  0  0  0  0  0  0  0  0  0  0  0  # atno 5206 bound_to 1176
  -14.3903  -27.8013  -37.9208 LP  0  0  0  0  0  0  0  0  0  0  0  0  # atno 5215 bound_to 1247
  -15.2541  -28.9482  -37.1430 LP  0  0  0  0  0  0  0  0  0  0  0  0  # atno 5216 bound_to 1247
  -12.8659  -24.9840  -38.8087 LP  0  0  0  0  0  0  0  0  0  0  0  0  # atno 5217 bound_to 1931
  -13.6890  -24.9774  -40.2191 LP  0  0  0  0  0  0  0  0  0  0  0  0  # atno 5218 bound_to 1931
  -11.2863  -22.3449  -30.8379 LP  0  0  0  0  0  0  0  0  0  0  0  0  # atno 5224 bound_to 1070
  -12.7657  -22.9010  -30.4272 LP  0  0  0  0  0  0  0  0  0  0  0  0  # atno 5225 bound_to 1070

$$$$
IA_51.cdx|SeH_inactivess_minimized|sdf|136|dock6
  -GOLD-   4172121513D 1   1.00000     0.00000

  8  7  0  0  0  0  0  0  0  0  1 V2000
  -10.5178  -25.1344  -34.2912 C   0  0  0  0  0  0  0  0  0  0  0  0
   -9.5000  -25.9880  -34.6638 N   0  0  0  0  0  0  0  0  0  0  0  0
  -11.3518  -24.8104  -35.3412 N   0  0  0  0  0  0  0  0  0  0  0  0
  -10.6652  -24.7086  -33.1474 O   0  0  0  0  0  0  0  0  0  0  0  0
   -8.8263  -26.2924  -33.9692 H   0  0  0  0  0  0  0  0  0  0  0  0
   -9.4129  -26.3171  -35.6193 H   0  0  0  0  0  0  0  0  0  0  0  0
  -12.1352  -24.1872  -35.1768 H   0  0  0  0  0  0  0  0  0  0  0  0
  -11.2009  -25.1802  -36.2737 H   0  0  0  0  0  0  0  0  0  0  0  0
  1  2  1  0  0  0  0
  1  3  1  0  0  0  0
  1  4  2  0  0  0  0
  2  5  1  0  0  0  0
  2  6  1  0  0  0  0
  3  7  1  0  0  0  0
  3  8  1  0  0  0  0
M  END
> <Name>
IA_51.cdx

> <SourceTag>
IA_51

> <Gold.Version>
5.2

> <Gold.Id.Protein>
6HGV|6HGV_protein|mol2

> <Gold.Goldscore.Fitness>
20.9044

> <Gold.Goldscore.Internal.Vdw>
-0.0000

> <Gold.Goldscore.Internal.Torsion>
-0.0000

> <Gold.Goldscore.External.Vdw>
12.4362

> <Gold.Goldscore.Internal.HBond>
0.0000

> <Gold.Goldscore.External.HBond>
3.8046

> <Gold.Goldscore.Internal.Correction>
0.0000

> <Gold.Goldscore.Hbonds>
donor molecule, donor type, donor heavy atom, donor atom, acceptor molecule, acceptor atom, score
      P1  H  1070  3677       L1     4  1.00
      L1  H     3     7       P1   853  0.30

> <Gold.Goldscore.Internal.Vdw.Weighted>
-0.0000

> <Gold.Goldscore.Internal.Torsion.Weighted>
-0.0000

> <Gold.Goldscore.External.Vdw.Weighted>
17.0997

> <Gold.Goldscore.Internal.HBond.Weighted>
0.0000

> <Gold.Goldscore.External.HBond.Weighted>
3.8046

> <Gold.Goldscore.Internal.Correction.Weighted>
0.0000

> <Gold.Protein.RotatedTorsions>
[ 3781 1176 1175 1172 ] final   60.76 input   60.00 | X-H torsion
[ 3847 1247 1246 1244 ] final  -82.58 input   60.00 | X-H torsion
[ 4507 1931 1930 1928 ] final   58.43 input   60.00 | X-H torsion
[ 3677 1070 1069 1066 ] final -111.63 input   60.00 | X-H torsion
[ 3525  925  924  922 ] final   64.35 input   59.99 | X-H torsion
[ 4531 1957 1955 1953 ] final   93.11 input   60.00 | X-H torsion

> <Gold.Protein.ActiveResidues>
 PHE267  PRO268  MET310  ASP335  TRP336  MET339  TYR343  THR360  PRO361  ILE363 
 PRO371  SER374  ILE375  ASN378  PHE381  TYR383  GLN384  PHE387  LEU408  LEU417 
 MET419  LEU428  TYR466  MET469  ASN472  ASP496  VAL498  LEU499  MET503  HIS524 
 TRP525 

> <Gold.Protein.RotatedAtoms>
   -2.7408  -29.8842  -30.8582 H   0  0  0  0  0  0  0  0  0  0  0  0  # atno 3525 bound_to 925 
  -11.5714  -23.6620  -31.4448 H   0  0  0  0  0  0  0  0  0  0  0  0  # atno 3677 bound_to 1070
  -10.5970  -37.4396  -32.7677 H   0  0  0  0  0  0  0  0  0  0  0  0  # atno 3781 bound_to 1176
  -15.9587  -27.5570  -37.4013 H   0  0  0  0  0  0  0  0  0  0  0  0  # atno 3847 bound_to 1247
  -12.6519  -24.6887  -38.8033 H   0  0  0  0  0  0  0  0  0  0  0  0  # atno 4507 bound_to 1931
   -2.7633  -33.8564  -36.7303 H   0  0  0  0  0  0  0  0  0  0  0  0  # atno 4531 bound_to 1957
  -10.2450  -36.6792  -34.1627 LP  0  0  0  0  0  0  0  0  0  0  0  0  # atno 5205 bound_to 1176
   -9.2648  -36.5104  -32.8675 LP  0  0  0  0  0  0  0  0  0  0  0  0  # atno 5206 bound_to 1176
  -14.4304  -27.7223  -37.9353 LP  0  0  0  0  0  0  0  0  0  0  0  0  # atno 5215 bound_to 1247
  -15.1698  -28.9615  -37.1710 LP  0  0  0  0  0  0  0  0  0  0  0  0  # atno 5216 bound_to 1247
  -13.6914  -25.2138  -39.9398 LP  0  0  0  0  0  0  0  0  0  0  0  0  # atno 5217 bound_to 1931
  -12.8545  -23.8308  -40.1711 LP  0  0  0  0  0  0  0  0  0  0  0  0  # atno 5218 bound_to 1931
  -11.4686  -22.2283  -30.6818 LP  0  0  0  0  0  0  0  0  0  0  0  0  # atno 5224 bound_to 1070
  -12.8167  -23.1386  -30.5374 LP  0  0  0  0  0  0  0  0  0  0  0  0  # atno 5225 bound_to 1070

$$$$
IA_209.cdx|SeH_inactivess_minimized|sdf|106|dock1
  -GOLD-   4172120513D 1   1.00000     0.00000

 26 26  0  0  0  0  0  0  0  0  1 V2000
   -9.3976  -25.6715  -34.4551 C   0  0  0  0  0  0  0  0  0  0  0  0
  -10.4705  -24.9966  -35.0373 C   0  0  0  0  0  0  0  0  0  0  0  0
   -9.0894  -26.9709  -34.8582 C   0  0  0  0  0  0  0  0  0  0  0  0
  -10.9273  -26.9204  -36.4256 C   0  0  0  0  0  0  0  0  0  0  0  0
  -11.2354  -25.6211  -36.0226 C   0  0  0  0  0  0  0  0  0  0  0  0
   -9.8543  -27.5953  -35.8435 C   0  0  0  0  0  0  0  0  0  0  0  0
  -13.4448  -25.4764  -37.2092 C   0  0  0  0  0  0  0  0  0  0  0  0
  -16.3747  -25.3095  -36.9158 C   0  0  0  0  0  0  0  0  0  0  0  0
  -16.1981  -23.6403  -38.7958 C   0  0  0  0  0  0  0  0  0  0  0  0
  -15.5508  -24.8282  -38.1004 C   0  0  0  0  0  0  0  0  0  0  0  0
  -12.3089  -24.9453  -36.6033 N   0  0  0  0  0  0  0  0  0  0  0  0
  -13.7224  -26.6612  -37.3507 O   0  0  0  0  0  0  0  0  0  0  0  0
  -14.2450  -24.4543  -37.6457 O   0  0  0  0  0  0  0  0  0  0  0  0
   -9.4743  -29.1985  -36.3410 Cl  0  0  0  0  0  0  0  0  0  0  0  0
   -8.8020  -25.1851  -33.6879 H   0  0  0  0  0  0  0  0  0  0  0  0
  -10.7012  -23.9842  -34.7149 H   0  0  0  0  0  0  0  0  0  0  0  0
   -8.2503  -27.4840  -34.3958 H   0  0  0  0  0  0  0  0  0  0  0  0
  -11.5257  -27.4043  -37.1946 H   0  0  0  0  0  0  0  0  0  0  0  0
  -16.4598  -24.5329  -36.1495 H   0  0  0  0  0  0  0  0  0  0  0  0
  -17.3817  -25.5917  -37.2415 H   0  0  0  0  0  0  0  0  0  0  0  0
  -15.9295  -26.2019  -36.4623 H   0  0  0  0  0  0  0  0  0  0  0  0
  -16.3148  -22.7945  -38.1114 H   0  0  0  0  0  0  0  0  0  0  0  0
  -17.1850  -23.9164  -39.1824 H   0  0  0  0  0  0  0  0  0  0  0  0
  -15.6031  -23.3151  -39.6563 H   0  0  0  0  0  0  0  0  0  0  0  0
  -15.4267  -25.6475  -38.8161 H   0  0  0  0  0  0  0  0  0  0  0  0
  -12.2543  -23.9216  -36.5812 H   0  0  0  0  0  0  0  0  0  0  0  0
  1  2  2  0  0  0  0
  1  3  1  0  0  0  0
  2  5  1  0  0  0  0
  3  6  2  0  0  0  0
  4  5  2  0  0  0  0
  4  6  1  0  0  0  0
  5 11  1  0  0  0  0
  6 14  1  0  0  0  0
  7 11  1  0  0  0  0
  7 12  2  0  0  0  0
  7 13  1  0  0  0  0
  8 10  1  0  0  0  0
  9 10  1  0  0  0  0
 10 13  1  0  0  0  0
  1 15  1  0  0  0  0
  2 16  1  0  0  0  0
  3 17  1  0  0  0  0
  4 18  1  0  0  0  0
  8 19  1  0  0  0  0
  8 20  1  0  0  0  0
  8 21  1  0  0  0  0
  9 22  1  0  0  0  0
  9 23  1  0  0  0  0
  9 24  1  0  0  0  0
 10 25  1  0  0  0  0
 11 26  1  0  0  0  0
M  END
> <Name>
IA_209.cdx

> <SourceTag>
IA_209

> <Gold.Version>
5.2

> <Gold.Id.Protein>
6HGV|6HGV_protein|mol2

> <Gold.Goldscore.Fitness>
49.8306

> <Gold.Goldscore.Internal.Vdw>
-2.4260

> <Gold.Goldscore.Internal.Torsion>
-1.7132

> <Gold.Goldscore.External.Vdw>
33.8277

> <Gold.Goldscore.Internal.HBond>
0.0000

> <Gold.Goldscore.External.HBond>
3.5439

> <Gold.Goldscore.Internal.Correction>
-3.9128

> <Gold.Goldscore.Hbonds>
donor molecule, donor type, donor heavy atom, donor atom, acceptor molecule, acceptor atom, score
      P1  H  1247  3847       L1    12  0.19
      L1  H    11    26       P1   854  0.53

> <Gold.Goldscore.Internal.Vdw.Weighted>
-2.4260

> <Gold.Goldscore.Internal.Torsion.Weighted>
-1.7132

> <Gold.Goldscore.External.Vdw.Weighted>
46.5131

> <Gold.Goldscore.Internal.HBond.Weighted>
0.0000

> <Gold.Goldscore.External.HBond.Weighted>
3.5439

> <Gold.Goldscore.Internal.Correction.Weighted>
-3.9128

> <Gold.Protein.RotatedTorsions>
[ 3781 1176 1175 1172 ] final  -83.35 input   60.00 | X-H torsion
[ 3847 1247 1246 1244 ] final  161.80 input   60.00 | X-H torsion
[ 4507 1931 1930 1928 ] final  142.19 input   60.00 | X-H torsion
[ 3677 1070 1069 1066 ] final -120.63 input   60.00 | X-H torsion
[ 3525  925  924  922 ] final  164.74 input   59.99 | X-H torsion
[ 4531 1957 1955 1953 ] final   18.64 input   60.00 | X-H torsion

> <Gold.Protein.ActiveResidues>
 PHE267  PRO268  MET310  ASP335  TRP336  MET339  TYR343  THR360  PRO361  ILE363 
 PRO371  SER374  ILE375  ASN378  PHE381  TYR383  GLN384  PHE387  LEU408  LEU417 
 MET419  LEU428  TYR466  MET469  ASN472  ASP496  VAL498  LEU499  MET503  HIS524 
 TRP525 

> <Gold.Protein.RotatedAtoms>
   -2.1175  -30.2692  -29.6203 H   0  0  0  0  0  0  0  0  0  0  0  0  # atno 3525 bound_to 925 
  -11.4551  -23.5724  -31.4509 H   0  0  0  0  0  0  0  0  0  0  0  0  # atno 3677 bound_to 1070
   -9.9111  -36.4815  -34.1037 H   0  0  0  0  0  0  0  0  0  0  0  0  # atno 3781 bound_to 1176
  -14.4735  -27.6649  -37.9430 H   0  0  0  0  0  0  0  0  0  0  0  0  # atno 3847 bound_to 1247
  -12.5420  -23.8026  -39.6779 H   0  0  0  0  0  0  0  0  0  0  0  0  # atno 4507 bound_to 1931
   -3.0201  -32.7549  -36.6624 H   0  0  0  0  0  0  0  0  0  0  0  0  # atno 4531 bound_to 1957
   -9.4165  -36.7222  -32.5722 LP  0  0  0  0  0  0  0  0  0  0  0  0  # atno 5205 bound_to 1176
  -10.7841  -37.4322  -33.1126 LP  0  0  0  0  0  0  0  0  0  0  0  0  # atno 5206 bound_to 1176
  -15.1023  -28.9664  -37.1956 LP  0  0  0  0  0  0  0  0  0  0  0  0  # atno 5215 bound_to 1247
  -15.9936  -27.6087  -37.3651 LP  0  0  0  0  0  0  0  0  0  0  0  0  # atno 5216 bound_to 1247
  -13.0166  -25.1389  -38.8798 LP  0  0  0  0  0  0  0  0  0  0  0  0  # atno 5217 bound_to 1931
  -13.6398  -24.7981  -40.3502 LP  0  0  0  0  0  0  0  0  0  0  0  0  # atno 5218 bound_to 1931
  -11.5872  -22.1904  -30.6019 LP  0  0  0  0  0  0  0  0  0  0  0  0  # atno 5224 bound_to 1070
  -12.8152  -23.2668  -30.6112 LP  0  0  0  0  0  0  0  0  0  0  0  0  # atno 5225 bound_to 1070

$$$$
IA_120.cdx|SeH_inactivess_minimized|sdf|23|dock9
  -GOLD-   4172119 33D 1   1.00000     0.00000

 38 38  0  0  0  0  0  0  0  0  1 V2000
   -9.3494  -27.0822  -34.5899 C   0  0  0  0  0  0  0  0  0  0  0  0
  -10.1818  -26.1341  -33.9954 C   0  0  0  0  0  0  0  0  0  0  0  0
   -9.5923  -27.5015  -35.8980 C   0  0  0  0  0  0  0  0  0  0  0  0
  -11.2574  -25.6051  -34.7089 C   0  0  0  0  0  0  0  0  0  0  0  0
  -10.6679  -26.9725  -36.6115 C   0  0  0  0  0  0  0  0  0  0  0  0
  -11.5004  -26.0244  -36.0169 C   0  0  0  0  0  0  0  0  0  0  0  0
  -13.8534  -25.1365  -36.2536 C   0  0  0  0  0  0  0  0  0  0  0  0
  -16.6179  -24.1373  -41.8277 C   0  0  0  0  0  0  0  0  0  0  0  0
  -20.4244  -24.3580  -36.9863 C   0  0  0  0  0  0  0  0  0  0  0  0
  -16.0117  -24.1952  -37.0928 C   0  0  0  0  0  0  0  0  0  0  0  0
  -17.1630  -24.7502  -40.5554 C   0  0  0  0  0  0  0  0  0  0  0  0
  -19.0276  -24.9365  -37.0647 C   0  0  0  0  0  0  0  0  0  0  0  0
  -16.9464  -24.6993  -38.1936 C   0  0  0  0  0  0  0  0  0  0  0  0
  -12.5911  -25.4877  -36.7402 N   0  0  0  0  0  0  0  0  0  0  0  0
  -14.6559  -24.6390  -37.2889 N   0  0  0  0  0  0  0  0  0  0  0  0
  -14.2439  -25.2334  -35.0926 O   0  0  0  0  0  0  0  0  0  0  0  0
  -16.3958  -24.2864  -39.4524 O   0  0  0  0  0  0  0  0  0  0  0  0
  -18.2669  -24.1841  -37.9997 O   0  0  0  0  0  0  0  0  0  0  0  0
   -8.5113  -27.4938  -34.0350 H   0  0  0  0  0  0  0  0  0  0  0  0
   -9.9925  -25.8069  -32.9774 H   0  0  0  0  0  0  0  0  0  0  0  0
   -8.9432  -28.2391  -36.3610 H   0  0  0  0  0  0  0  0  0  0  0  0
  -11.8994  -24.8666  -34.2353 H   0  0  0  0  0  0  0  0  0  0  0  0
  -10.8475  -27.3067  -37.6303 H   0  0  0  0  0  0  0  0  0  0  0  0
  -16.7542  -23.0523  -41.8277 H   0  0  0  0  0  0  0  0  0  0  0  0
  -15.5513  -24.3596  -41.9371 H   0  0  0  0  0  0  0  0  0  0  0  0
  -17.1220  -24.5566  -42.7048 H   0  0  0  0  0  0  0  0  0  0  0  0
  -20.3929  -23.2964  -36.7260 H   0  0  0  0  0  0  0  0  0  0  0  0
  -20.9437  -24.4722  -37.9435 H   0  0  0  0  0  0  0  0  0  0  0  0
  -21.0199  -24.8883  -36.2358 H   0  0  0  0  0  0  0  0  0  0  0  0
  -15.9834  -23.1026  -37.0592 H   0  0  0  0  0  0  0  0  0  0  0  0
  -16.3284  -24.5717  -36.1150 H   0  0  0  0  0  0  0  0  0  0  0  0
  -17.0973  -25.8416  -40.5965 H   0  0  0  0  0  0  0  0  0  0  0  0
  -18.2070  -24.4594  -40.4058 H   0  0  0  0  0  0  0  0  0  0  0  0
  -19.0619  -25.9787  -37.3957 H   0  0  0  0  0  0  0  0  0  0  0  0
  -18.5359  -24.8864  -36.0886 H   0  0  0  0  0  0  0  0  0  0  0  0
  -16.9570  -25.7972  -38.1714 H   0  0  0  0  0  0  0  0  0  0  0  0
  -12.4325  -25.3410  -37.7339 H   0  0  0  0  0  0  0  0  0  0  0  0
  -14.2613  -24.5890  -38.2253 H   0  0  0  0  0  0  0  0  0  0  0  0
  1  2  2  0  0  0  0
  1  3  1  0  0  0  0
  2  4  1  0  0  0  0
  3  5  2  0  0  0  0
  4  6  2  0  0  0  0
  5  6  1  0  0  0  0
  6 14  1  0  0  0  0
  7 14  1  0  0  0  0
  7 15  1  0  0  0  0
  7 16  2  0  0  0  0
  8 11  1  0  0  0  0
  9 12  1  0  0  0  0
 10 13  1  0  0  0  0
 10 15  1  0  0  0  0
 11 17  1  0  0  0  0
 12 18  1  0  0  0  0
 13 17  1  0  0  0  0
 13 18  1  0  0  0  0
  1 19  1  0  0  0  0
  2 20  1  0  0  0  0
  3 21  1  0  0  0  0
  4 22  1  0  0  0  0
  5 23  1  0  0  0  0
  8 24  1  0  0  0  0
  8 25  1  0  0  0  0
  8 26  1  0  0  0  0
  9 27  1  0  0  0  0
  9 28  1  0  0  0  0
  9 29  1  0  0  0  0
 10 30  1  0  0  0  0
 10 31  1  0  0  0  0
 11 32  1  0  0  0  0
 11 33  1  0  0  0  0
 12 34  1  0  0  0  0
 12 35  1  0  0  0  0
 13 36  1  0  0  0  0
 14 37  1  0  0  0  0
 15 38  1  0  0  0  0
M  END
> <Name>
IA_120.cdx

> <SourceTag>
IA_120

> <Gold.Version>
5.2

> <Gold.Id.Protein>
6HGV|6HGV_protein|mol2

> <Gold.Goldscore.Fitness>
56.1431

> <Gold.Goldscore.Internal.Vdw>
-4.4856

> <Gold.Goldscore.Internal.Torsion>
-4.2025

> <Gold.Goldscore.External.Vdw>
39.0814

> <Gold.Goldscore.Internal.HBond>
0.0000

> <Gold.Goldscore.External.HBond>
2.6558

> <Gold.Goldscore.Internal.Correction>
-8.4384

> <Gold.Goldscore.Hbonds>
donor molecule, donor type, donor heavy atom, donor atom, acceptor molecule, acceptor atom, score
      L1  H    14    37       P1  1931  0.66
      L1  H    15    38       P1  1931  0.67

> <Gold.Goldscore.Internal.Vdw.Weighted>
-4.4856

> <Gold.Goldscore.Internal.Torsion.Weighted>
-4.2025

> <Gold.Goldscore.External.Vdw.Weighted>
53.7369

> <Gold.Goldscore.Internal.HBond.Weighted>
0.0000

> <Gold.Goldscore.External.HBond.Weighted>
2.6558

> <Gold.Goldscore.Internal.Correction.Weighted>
-8.4384

> <Gold.Protein.RotatedTorsions>
[ 3781 1176 1175 1172 ] final   -7.58 input   60.00 | X-H torsion
[ 3847 1247 1246 1244 ] final  157.38 input   60.00 | X-H torsion
[ 4507 1931 1930 1928 ] final -137.42 input   60.00 | X-H torsion
[ 3677 1070 1069 1066 ] final   44.82 input   60.00 | X-H torsion
[ 3525  925  924  922 ] final  -88.90 input   59.99 | X-H torsion
[ 4531 1957 1955 1953 ] final  126.43 input   60.00 | X-H torsion

> <Gold.Protein.ActiveResidues>
 PHE267  PRO268  MET310  ASP335  TRP336  MET339  TYR343  THR360  PRO361  ILE363 
 PRO371  SER374  ILE375  ASN378  PHE381  TYR383  GLN384  PHE387  LEU408  LEU417 
 MET419  LEU428  TYR466  MET469  ASN472  ASP496  VAL498  LEU499  MET503  HIS524 
 TRP525 

> <Gold.Protein.RotatedAtoms>
   -3.4467  -29.7294  -29.1860 H   0  0  0  0  0  0  0  0  0  0  0  0  # atno 3525 bound_to 925 
  -12.6072  -22.6243  -30.3446 H   0  0  0  0  0  0  0  0  0  0  0  0  # atno 3677 bound_to 1070
  -10.7653  -37.1758  -33.7717 H   0  0  0  0  0  0  0  0  0  0  0  0  # atno 3781 bound_to 1176
  -14.4363  -27.7261  -37.9342 H   0  0  0  0  0  0  0  0  0  0  0  0  # atno 3847 bound_to 1247
  -13.3290  -24.2566  -40.4748 H   0  0  0  0  0  0  0  0  0  0  0  0  # atno 4507 bound_to 1931
   -2.2769  -34.0625  -36.8263 H   0  0  0  0  0  0  0  0  0  0  0  0  # atno 4531 bound_to 1957
   -9.3963  -36.3043  -33.6518 LP  0  0  0  0  0  0  0  0  0  0  0  0  # atno 5205 bound_to 1176
   -9.9439  -37.1508  -32.3672 LP  0  0  0  0  0  0  0  0  0  0  0  0  # atno 5206 bound_to 1176
  -15.1704  -28.9615  -37.1708 LP  0  0  0  0  0  0  0  0  0  0  0  0  # atno 5215 bound_to 1247
  -15.9631  -27.5521  -37.3988 LP  0  0  0  0  0  0  0  0  0  0  0  0  # atno 5216 bound_to 1247
  -12.4313  -24.1009  -39.1265 LP  0  0  0  0  0  0  0  0  0  0  0  0  # atno 5217 bound_to 1931
  -13.4326  -25.3789  -39.3011 LP  0  0  0  0  0  0  0  0  0  0  0  0  # atno 5218 bound_to 1931
  -12.1069  -23.8496  -31.2914 LP  0  0  0  0  0  0  0  0  0  0  0  0  # atno 5224 bound_to 1070
  -11.1353  -22.5622  -31.0358 LP  0  0  0  0  0  0  0  0  0  0  0  0  # atno 5225 bound_to 1070

$$$$
IA_93.cdx|SeH_inactivess_minimized|sdf|172|dock3
  -GOLD-   41821 8313D 1   1.00000     0.00000

 51 51  0  0  0  0  0  0  0  0  1 V2000
  -14.5522  -24.8575  -38.0951 C   0  0  0  0  0  0  0  0  0  0  0  0
  -17.0033  -22.7171  -40.1065 C   0  0  0  0  0  0  0  0  0  0  0  0
  -16.5223  -23.9923  -40.7327 C   0  0  0  0  0  0  0  0  0  0  0  0
  -16.5289  -23.8478  -39.2354 C   0  0  0  0  0  0  0  0  0  0  0  0
   -3.7430  -32.9738  -32.8831 C   0  0  0  0  0  0  0  0  0  0  0  0
   -3.6605  -32.7716  -34.3877 C   0  0  0  0  0  0  0  0  0  0  0  0
   -4.1572  -31.3835  -34.7948 C   0  0  0  0  0  0  0  0  0  0  0  0
   -5.6266  -31.1883  -34.4151 C   0  0  0  0  0  0  0  0  0  0  0  0
   -6.2072  -29.8543  -34.8938 C   0  0  0  0  0  0  0  0  0  0  0  0
   -7.6774  -29.6590  -34.5138 C   0  0  0  0  0  0  0  0  0  0  0  0
   -8.2022  -28.3117  -35.0173 C   0  0  0  0  0  0  0  0  0  0  0  0
   -9.6156  -27.9862  -34.5258 C   0  0  0  0  0  0  0  0  0  0  0  0
  -10.1602  -26.6643  -35.0715 C   0  0  0  0  0  0  0  0  0  0  0  0
  -11.6282  -26.4674  -34.6838 C   0  0  0  0  0  0  0  0  0  0  0  0
  -12.2207  -25.2306  -35.3663 C   0  0  0  0  0  0  0  0  0  0  0  0
  -12.4642  -25.4294  -36.8634 C   0  0  0  0  0  0  0  0  0  0  0  0
  -15.2981  -23.7486  -38.4854 N   0  0  0  0  0  0  0  0  0  0  0  0
  -13.4244  -24.4680  -37.3915 N   0  0  0  0  0  0  0  0  0  0  0  0
  -14.8561  -26.0235  -38.3438 O   0  0  0  0  0  0  0  0  0  0  0  0
  -16.3746  -21.8405  -40.2039 H   0  0  0  0  0  0  0  0  0  0  0  0
  -18.0664  -22.5114  -40.1312 H   0  0  0  0  0  0  0  0  0  0  0  0
  -17.2615  -24.6458  -41.1795 H   0  0  0  0  0  0  0  0  0  0  0  0
  -15.5706  -23.9717  -41.2495 H   0  0  0  0  0  0  0  0  0  0  0  0
  -17.2914  -24.4004  -38.6968 H   0  0  0  0  0  0  0  0  0  0  0  0
   -4.7813  -33.1409  -32.5795 H   0  0  0  0  0  0  0  0  0  0  0  0
   -3.1538  -33.8421  -32.5709 H   0  0  0  0  0  0  0  0  0  0  0  0
   -3.3697  -32.0946  -32.3483 H   0  0  0  0  0  0  0  0  0  0  0  0
   -4.2583  -33.5431  -34.8869 H   0  0  0  0  0  0  0  0  0  0  0  0
   -2.6219  -32.9049  -34.7124 H   0  0  0  0  0  0  0  0  0  0  0  0
   -4.0285  -31.2608  -35.8760 H   0  0  0  0  0  0  0  0  0  0  0  0
   -3.5455  -30.6166  -34.3049 H   0  0  0  0  0  0  0  0  0  0  0  0
   -6.2260  -32.0151  -34.8154 H   0  0  0  0  0  0  0  0  0  0  0  0
   -5.7224  -31.2294  -33.3228 H   0  0  0  0  0  0  0  0  0  0  0  0
   -6.0910  -29.7725  -35.9812 H   0  0  0  0  0  0  0  0  0  0  0  0
   -5.6130  -29.0452  -34.4511 H   0  0  0  0  0  0  0  0  0  0  0  0
   -8.2860  -30.4631  -34.9420 H   0  0  0  0  0  0  0  0  0  0  0  0
   -7.7761  -29.7168  -33.4243 H   0  0  0  0  0  0  0  0  0  0  0  0
   -7.5157  -27.5108  -34.7170 H   0  0  0  0  0  0  0  0  0  0  0  0
   -8.2160  -28.3207  -36.1144 H   0  0  0  0  0  0  0  0  0  0  0  0
   -9.6285  -27.9680  -33.4292 H   0  0  0  0  0  0  0  0  0  0  0  0
  -10.2805  -28.8022  -34.8354 H   0  0  0  0  0  0  0  0  0  0  0  0
  -10.0638  -26.6500  -36.1638 H   0  0  0  0  0  0  0  0  0  0  0  0
   -9.5724  -25.8259  -34.6813 H   0  0  0  0  0  0  0  0  0  0  0  0
  -12.2057  -27.3549  -34.9701 H   0  0  0  0  0  0  0  0  0  0  0  0
  -11.7038  -26.3687  -33.5945 H   0  0  0  0  0  0  0  0  0  0  0  0
  -13.1593  -24.9494  -34.8722 H   0  0  0  0  0  0  0  0  0  0  0  0
  -11.5332  -24.3852  -35.2384 H   0  0  0  0  0  0  0  0  0  0  0  0
  -11.5157  -25.3171  -37.4001 H   0  0  0  0  0  0  0  0  0  0  0  0
  -12.8291  -26.4447  -37.0519 H   0  0  0  0  0  0  0  0  0  0  0  0
  -14.9608  -22.8255  -38.2305 H   0  0  0  0  0  0  0  0  0  0  0  0
  -13.2208  -23.4877  -37.2688 H   0  0  0  0  0  0  0  0  0  0  0  0
  1 17  1  0  0  0  0
  1 18  1  0  0  0  0
  1 19  2  0  0  0  0
  2  3  1  0  0  0  0
  2  4  1  0  0  0  0
  3  4  1  0  0  0  0
  4 17  1  0  0  0  0
  5  6  1  0  0  0  0
  6  7  1  0  0  0  0
  7  8  1  0  0  0  0
  8  9  1  0  0  0  0
  9 10  1  0  0  0  0
 10 11  1  0  0  0  0
 11 12  1  0  0  0  0
 12 13  1  0  0  0  0
 13 14  1  0  0  0  0
 14 15  1  0  0  0  0
 15 16  1  0  0  0  0
 16 18  1  0  0  0  0
  2 20  1  0  0  0  0
  2 21  1  0  0  0  0
  3 22  1  0  0  0  0
  3 23  1  0  0  0  0
  4 24  1  0  0  0  0
  5 25  1  0  0  0  0
  5 26  1  0  0  0  0
  5 27  1  0  0  0  0
  6 28  1  0  0  0  0
  6 29  1  0  0  0  0
  7 30  1  0  0  0  0
  7 31  1  0  0  0  0
  8 32  1  0  0  0  0
  8 33  1  0  0  0  0
  9 34  1  0  0  0  0
  9 35  1  0  0  0  0
 10 36  1  0  0  0  0
 10 37  1  0  0  0  0
 11 38  1  0  0  0  0
 11 39  1  0  0  0  0
 12 40  1  0  0  0  0
 12 41  1  0  0  0  0
 13 42  1  0  0  0  0
 13 43  1  0  0  0  0
 14 44  1  0  0  0  0
 14 45  1  0  0  0  0
 15 46  1  0  0  0  0
 15 47  1  0  0  0  0
 16 48  1  0  0  0  0
 16 49  1  0  0  0  0
 17 50  1  0  0  0  0
 18 51  1  0  0  0  0
M  END
> <Name>
IA_93.cdx

> <SourceTag>
IA_93

> <Gold.Version>
5.2

> <Gold.Id.Protein>
6HGV|6HGV_protein|mol2

> <Gold.Goldscore.Fitness>
62.4589

> <Gold.Goldscore.Internal.Vdw>
-5.1615

> <Gold.Goldscore.Internal.Torsion>
-3.1405

> <Gold.Goldscore.External.Vdw>
44.1701

> <Gold.Goldscore.Internal.HBond>
0.0000

> <Gold.Goldscore.External.HBond>
4.6244

> <Gold.Goldscore.Internal.Correction>
-5.4026

> <Gold.Goldscore.Hbonds>
donor molecule, donor type, donor heavy atom, donor atom, acceptor molecule, acceptor atom, score
      P1  H  1247  3847       L1    19  0.68
      L1  H    18    51       P1   854  0.54

> <Gold.Goldscore.Internal.Vdw.Weighted>
-5.1615

> <Gold.Goldscore.Internal.Torsion.Weighted>
-3.1405

> <Gold.Goldscore.External.Vdw.Weighted>
60.7339

> <Gold.Goldscore.Internal.HBond.Weighted>
0.0000

> <Gold.Goldscore.External.HBond.Weighted>
4.6244

> <Gold.Goldscore.Internal.Correction.Weighted>
-5.4026

> <Gold.Protein.RotatedTorsions>
[ 3781 1176 1175 1172 ] final   16.63 input   60.00 | X-H torsion
[ 3847 1247 1246 1244 ] final -155.34 input   60.00 | X-H torsion
[ 4507 1931 1930 1928 ] final -153.53 input   60.00 | X-H torsion
[ 3677 1070 1069 1066 ] final  -97.11 input   60.00 | X-H torsion
[ 3525  925  924  922 ] final   53.32 input   59.99 | X-H torsion
[ 4531 1957 1955 1953 ] final  -73.46 input   60.00 | X-H torsion

> <Gold.Protein.ActiveResidues>
 PHE267  PRO268  MET310  ASP335  TRP336  MET339  TYR343  THR360  PRO361  ILE363 
 PRO371  SER374  ILE375  ASN378  PHE381  TYR383  GLN384  PHE387  LEU408  LEU417 
 MET419  LEU428  TYR466  MET469  ASN472  ASP496  VAL498  LEU499  MET503  HIS524 
 TRP525 

> <Gold.Protein.RotatedAtoms>
   -2.9050  -29.8115  -30.8708 H   0  0  0  0  0  0  0  0  0  0  0  0  # atno 3525 bound_to 925 
  -11.7772  -23.7721  -31.4063 H   0  0  0  0  0  0  0  0  0  0  0  0  # atno 3677 bound_to 1070
  -10.8299  -37.3487  -33.4251 H   0  0  0  0  0  0  0  0  0  0  0  0  # atno 3781 bound_to 1176
  -15.0120  -27.2462  -37.8918 H   0  0  0  0  0  0  0  0  0  0  0  0  # atno 3847 bound_to 1247
  -13.1592  -24.0659  -40.4141 H   0  0  0  0  0  0  0  0  0  0  0  0  # atno 4507 bound_to 1931
   -1.7760  -32.2885  -36.8909 H   0  0  0  0  0  0  0  0  0  0  0  0  # atno 4531 bound_to 1957
   -9.6487  -36.3607  -33.9510 LP  0  0  0  0  0  0  0  0  0  0  0  0  # atno 5205 bound_to 1176
   -9.6265  -36.9203  -32.4171 LP  0  0  0  0  0  0  0  0  0  0  0  0  # atno 5206 bound_to 1176
  -14.5259  -28.7501  -37.5046 LP  0  0  0  0  0  0  0  0  0  0  0  0  # atno 5215 bound_to 1247
  -16.0278  -28.2467  -37.1077 LP  0  0  0  0  0  0  0  0  0  0  0  0  # atno 5216 bound_to 1247
  -12.4723  -24.3000  -38.9576 LP  0  0  0  0  0  0  0  0  0  0  0  0  # atno 5217 bound_to 1931
  -13.5626  -25.3719  -39.5310 LP  0  0  0  0  0  0  0  0  0  0  0  0  # atno 5218 bound_to 1931
  -11.3036  -22.3296  -30.8206 LP  0  0  0  0  0  0  0  0  0  0  0  0  # atno 5224 bound_to 1070
  -12.7745  -22.9265  -30.4375 LP  0  0  0  0  0  0  0  0  0  0  0  0  # atno 5225 bound_to 1070

$$$$
IA_144.cdx|SeH_inactivess_minimized|sdf|47|dock10
  -GOLD-   4172119373D 1   1.00000     0.00000

 20 20  0  0  0  0  0  0  0  0  1 V2000
   -9.8758  -25.7238  -34.1391 C   0  0  0  0  0  0  0  0  0  0  0  0
  -11.1116  -25.1468  -33.8470 C   0  0  0  0  0  0  0  0  0  0  0  0
   -9.6890  -26.3993  -35.3452 C   0  0  0  0  0  0  0  0  0  0  0  0
  -12.1608  -25.2451  -34.7609 C   0  0  0  0  0  0  0  0  0  0  0  0
  -10.7382  -26.4977  -36.2591 C   0  0  0  0  0  0  0  0  0  0  0  0
  -11.9741  -25.9206  -35.9670 C   0  0  0  0  0  0  0  0  0  0  0  0
  -13.0680  -26.0232  -36.9197 C   0  0  0  0  0  0  0  0  0  0  0  0
  -14.8231  -24.7094  -38.1220 C   0  0  0  0  0  0  0  0  0  0  0  0
  -15.1870  -23.3856  -38.3000 N   0  0  0  0  0  0  0  0  0  0  0  0
  -13.7638  -24.8366  -37.2173 N   0  0  0  0  0  0  0  0  0  0  0  0
  -13.3384  -27.1135  -37.4527 O   0  0  0  0  0  0  0  0  0  0  0  0
  -15.3821  -25.6397  -38.6996 O   0  0  0  0  0  0  0  0  0  0  0  0
   -9.0590  -25.6473  -33.4275 H   0  0  0  0  0  0  0  0  0  0  0  0
  -11.2568  -24.6210  -32.9078 H   0  0  0  0  0  0  0  0  0  0  0  0
   -8.7268  -26.8484  -35.5728 H   0  0  0  0  0  0  0  0  0  0  0  0
  -13.1196  -24.7918  -34.5231 H   0  0  0  0  0  0  0  0  0  0  0  0
  -10.5814  -27.0265  -37.1958 H   0  0  0  0  0  0  0  0  0  0  0  0
  -15.9410  -23.1182  -38.9235 H   0  0  0  0  0  0  0  0  0  0  0  0
  -14.7090  -22.6392  -37.8063 H   0  0  0  0  0  0  0  0  0  0  0  0
  -13.4698  -23.9952  -36.7303 H   0  0  0  0  0  0  0  0  0  0  0  0
  1  2  2  0  0  0  0
  1  3  1  0  0  0  0
  2  4  1  0  0  0  0
  3  5  2  0  0  0  0
  4  6  2  0  0  0  0
  5  6  1  0  0  0  0
  6  7  1  0  0  0  0
  7 10  1  0  0  0  0
  7 11  2  0  0  0  0
  8  9  1  0  0  0  0
  8 10  1  0  0  0  0
  8 12  2  0  0  0  0
  1 13  1  0  0  0  0
  2 14  1  0  0  0  0
  3 15  1  0  0  0  0
  4 16  1  0  0  0  0
  5 17  1  0  0  0  0
  9 18  1  0  0  0  0
  9 19  1  0  0  0  0
 10 20  1  0  0  0  0
M  END
> <Name>
IA_144.cdx

> <SourceTag>
IA_144

> <Gold.Version>
5.2

> <Gold.Id.Protein>
6HGV|6HGV_protein|mol2

> <Gold.Goldscore.Fitness>
41.1641

> <Gold.Goldscore.Internal.Vdw>
-2.4555

> <Gold.Goldscore.Internal.Torsion>
-3.8501

> <Gold.Goldscore.External.Vdw>
26.7623

> <Gold.Goldscore.Internal.HBond>
0.0000

> <Gold.Goldscore.External.HBond>
4.8148

> <Gold.Goldscore.Internal.Correction>
-5.8567

> <Gold.Goldscore.Hbonds>
donor molecule, donor type, donor heavy atom, donor atom, acceptor molecule, acceptor atom, score
      P1  H  1247  3847       L1    11  0.07
      L1  H     9    19       P1   854  0.14
      L1  H    10    20       P1   853  0.21
      L1  H    10    20       P1   854  0.43

> <Gold.Goldscore.Internal.Vdw.Weighted>
-2.4555

> <Gold.Goldscore.Internal.Torsion.Weighted>
-3.8501

> <Gold.Goldscore.External.Vdw.Weighted>
36.7982

> <Gold.Goldscore.Internal.HBond.Weighted>
0.0000

> <Gold.Goldscore.External.HBond.Weighted>
4.8148

> <Gold.Goldscore.Internal.Correction.Weighted>
-5.8567

> <Gold.Protein.RotatedTorsions>
[ 3781 1176 1175 1172 ] final  -56.41 input   60.00 | X-H torsion
[ 3847 1247 1246 1244 ] final  128.29 input   60.00 | X-H torsion
[ 4507 1931 1930 1928 ] final  137.88 input   60.00 | X-H torsion
[ 3677 1070 1069 1066 ] final  178.61 input   60.00 | X-H torsion
[ 3525  925  924  922 ] final  -14.23 input   59.99 | X-H torsion
[ 4531 1957 1955 1953 ] final   96.95 input   60.00 | X-H torsion

> <Gold.Protein.ActiveResidues>
 PHE267  PRO268  MET310  ASP335  TRP336  MET339  TYR343  THR360  PRO361  ILE363 
 PRO371  SER374  ILE375  ASN378  PHE381  TYR383  GLN384  PHE387  LEU408  LEU417 
 MET419  LEU428  TYR466  MET469  ASN472  ASP496  VAL498  LEU499  MET503  HIS524 
 TRP525 

> <Gold.Protein.RotatedAtoms>
   -3.7040  -29.5179  -30.2717 H   0  0  0  0  0  0  0  0  0  0  0  0  # atno 3525 bound_to 925 
  -11.0943  -22.7471  -31.1583 H   0  0  0  0  0  0  0  0  0  0  0  0  # atno 3677 bound_to 1070
  -10.2799  -36.7091  -34.1530 H   0  0  0  0  0  0  0  0  0  0  0  0  # atno 3781 bound_to 1176
  -14.3102  -28.1635  -37.8164 H   0  0  0  0  0  0  0  0  0  0  0  0  # atno 3847 bound_to 1247
  -12.5167  -23.8195  -39.6145 H   0  0  0  0  0  0  0  0  0  0  0  0  # atno 4507 bound_to 1931
   -2.7144  -33.8944  -36.7402 H   0  0  0  0  0  0  0  0  0  0  0  0  # atno 4531 bound_to 1957
   -9.2556  -36.4891  -32.9079 LP  0  0  0  0  0  0  0  0  0  0  0  0  # atno 5205 bound_to 1176
  -10.5735  -37.4361  -32.7271 LP  0  0  0  0  0  0  0  0  0  0  0  0  # atno 5206 bound_to 1176
  -15.6029  -28.8022  -37.0619 LP  0  0  0  0  0  0  0  0  0  0  0  0  # atno 5215 bound_to 1247
  -15.6575  -27.2708  -37.6263 LP  0  0  0  0  0  0  0  0  0  0  0  0  # atno 5216 bound_to 1247
  -13.0644  -25.1808  -38.9111 LP  0  0  0  0  0  0  0  0  0  0  0  0  # atno 5217 bound_to 1931
  -13.6175  -24.7392  -40.3828 LP  0  0  0  0  0  0  0  0  0  0  0  0  # atno 5218 bound_to 1931
  -12.4601  -22.4547  -30.3233 LP  0  0  0  0  0  0  0  0  0  0  0  0  # atno 5224 bound_to 1070
  -12.3056  -23.8335  -31.1845 LP  0  0  0  0  0  0  0  0  0  0  0  0  # atno 5225 bound_to 1070

$$$$
IA_54.cdx|SeH_inactivess_minimized|sdf|139|dock9
  -GOLD-   4172121533D 1   1.00000     0.00000

 31 32  0  0  0  0  0  0  0  0  1 V2000
   -9.9461  -25.8068  -34.2473 C   0  0  0  0  0  0  0  0  0  0  0  0
  -19.7243  -23.9864  -36.4033 C   0  0  0  0  0  0  0  0  0  0  0  0
  -10.9984  -25.0401  -33.7468 C   0  0  0  0  0  0  0  0  0  0  0  0
  -10.0406  -26.3764  -35.5171 C   0  0  0  0  0  0  0  0  0  0  0  0
  -19.0785  -24.9683  -35.6519 C   0  0  0  0  0  0  0  0  0  0  0  0
  -19.0335  -23.3116  -37.4100 C   0  0  0  0  0  0  0  0  0  0  0  0
  -12.1452  -24.8431  -34.5159 C   0  0  0  0  0  0  0  0  0  0  0  0
  -11.1875  -26.1794  -36.2862 C   0  0  0  0  0  0  0  0  0  0  0  0
  -17.7420  -25.2752  -35.9071 C   0  0  0  0  0  0  0  0  0  0  0  0
  -17.6970  -23.6186  -37.6650 C   0  0  0  0  0  0  0  0  0  0  0  0
  -12.2398  -25.4128  -35.7857 C   0  0  0  0  0  0  0  0  0  0  0  0
  -17.0512  -24.6003  -36.9136 C   0  0  0  0  0  0  0  0  0  0  0  0
  -14.7285  -25.1265  -36.1190 C   0  0  0  0  0  0  0  0  0  0  0  0
  -15.2630  -25.1120  -38.5820 C   0  0  0  0  0  0  0  0  0  0  0  0
  -13.3869  -25.2155  -36.5548 N   0  0  0  0  0  0  0  0  0  0  0  0
  -15.6612  -24.9199  -37.1788 N   0  0  0  0  0  0  0  0  0  0  0  0
  -15.0589  -25.2095  -34.9352 O   0  0  0  0  0  0  0  0  0  0  0  0
   -9.0526  -25.9598  -33.6490 H   0  0  0  0  0  0  0  0  0  0  0  0
  -20.7653  -23.7477  -36.2055 H   0  0  0  0  0  0  0  0  0  0  0  0
  -10.9248  -24.5958  -32.7586 H   0  0  0  0  0  0  0  0  0  0  0  0
   -9.2207  -26.9726  -35.9071 H   0  0  0  0  0  0  0  0  0  0  0  0
  -19.6163  -25.4945  -34.8688 H   0  0  0  0  0  0  0  0  0  0  0  0
  -19.5370  -22.5478  -37.9955 H   0  0  0  0  0  0  0  0  0  0  0  0
  -12.9589  -24.2436  -34.1154 H   0  0  0  0  0  0  0  0  0  0  0  0
  -11.2500  -26.6281  -37.2745 H   0  0  0  0  0  0  0  0  0  0  0  0
  -17.2491  -26.0424  -35.3150 H   0  0  0  0  0  0  0  0  0  0  0  0
  -17.1687  -23.0861  -38.4521 H   0  0  0  0  0  0  0  0  0  0  0  0
  -16.1493  -25.1797  -39.2182 H   0  0  0  0  0  0  0  0  0  0  0  0
  -14.6829  -26.0328  -38.6875 H   0  0  0  0  0  0  0  0  0  0  0  0
  -14.6507  -24.2715  -38.9195 H   0  0  0  0  0  0  0  0  0  0  0  0
  -13.2378  -25.1233  -37.5648 H   0  0  0  0  0  0  0  0  0  0  0  0
  1  3  2  0  0  0  0
  1  4  1  0  0  0  0
  2  5  2  0  0  0  0
  2  6  1  0  0  0  0
  3  7  1  0  0  0  0
  4  8  2  0  0  0  0
  5  9  1  0  0  0  0
  6 10  2  0  0  0  0
  7 11  2  0  0  0  0
  8 11  1  0  0  0  0
  9 12  2  0  0  0  0
 10 12  1  0  0  0  0
 11 15  1  0  0  0  0
 12 16  1  0  0  0  0
 13 15  1  0  0  0  0
 13 16  1  0  0  0  0
 13 17  2  0  0  0  0
 14 16  1  0  0  0  0
  1 18  1  0  0  0  0
  2 19  1  0  0  0  0
  3 20  1  0  0  0  0
  4 21  1  0  0  0  0
  5 22  1  0  0  0  0
  6 23  1  0  0  0  0
  7 24  1  0  0  0  0
  8 25  1  0  0  0  0
  9 26  1  0  0  0  0
 10 27  1  0  0  0  0
 14 28  1  0  0  0  0
 14 29  1  0  0  0  0
 14 30  1  0  0  0  0
 15 31  1  0  0  0  0
M  END
> <Name>
IA_54.cdx

> <SourceTag>
IA_54

> <Gold.Version>
5.2

> <Gold.Id.Protein>
6HGV|6HGV_protein|mol2

> <Gold.Goldscore.Fitness>
49.1991

> <Gold.Goldscore.Internal.Vdw>
-8.8006

> <Gold.Goldscore.Internal.Torsion>
-7.0116

> <Gold.Goldscore.External.Vdw>
37.9215

> <Gold.Goldscore.Internal.HBond>
0.0000

> <Gold.Goldscore.External.HBond>
2.0000

> <Gold.Goldscore.Internal.Correction>
-10.8692

> <Gold.Goldscore.Hbonds>
donor molecule, donor type, donor heavy atom, donor atom, acceptor molecule, acceptor atom, score
      L1  H    15    31       P1  1931  1.00

> <Gold.Goldscore.Internal.Vdw.Weighted>
-8.8006

> <Gold.Goldscore.Internal.Torsion.Weighted>
-7.0116

> <Gold.Goldscore.External.Vdw.Weighted>
52.1421

> <Gold.Goldscore.Internal.HBond.Weighted>
0.0000

> <Gold.Goldscore.External.HBond.Weighted>
2.0000

> <Gold.Goldscore.Internal.Correction.Weighted>
-10.8692

> <Gold.Protein.RotatedTorsions>
[ 3781 1176 1175 1172 ] final  -63.05 input   60.00 | X-H torsion
[ 3847 1247 1246 1244 ] final  116.31 input   60.00 | X-H torsion
[ 4507 1931 1930 1928 ] final  144.69 input   60.00 | X-H torsion
[ 3677 1070 1069 1066 ] final  174.31 input   60.00 | X-H torsion
[ 3525  925  924  922 ] final  118.34 input   59.99 | X-H torsion
[ 4531 1957 1955 1953 ] final  174.88 input   60.00 | X-H torsion

> <Gold.Protein.ActiveResidues>
 PHE267  PRO268  MET310  ASP335  TRP336  MET339  TYR343  THR360  PRO361  ILE363 
 PRO371  SER374  ILE375  ASN378  PHE381  TYR383  GLN384  PHE387  LEU408  LEU417 
 MET419  LEU428  TYR466  MET469  ASN472  ASP496  VAL498  LEU499  MET503  HIS524 
 TRP525 

> <Gold.Protein.RotatedAtoms>
   -2.1316  -30.1959  -30.3541 H   0  0  0  0  0  0  0  0  0  0  0  0  # atno 3525 bound_to 925 
  -11.1034  -22.6886  -31.1206 H   0  0  0  0  0  0  0  0  0  0  0  0  # atno 3677 bound_to 1070
  -10.1909  -36.6475  -34.1591 H   0  0  0  0  0  0  0  0  0  0  0  0  # atno 3781 bound_to 1176
  -14.3229  -28.3440  -37.7423 H   0  0  0  0  0  0  0  0  0  0  0  0  # atno 3847 bound_to 1247
  -12.5581  -23.7948  -39.7146 H   0  0  0  0  0  0  0  0  0  0  0  0  # atno 4507 bound_to 1931
   -1.5594  -33.8211  -36.9585 H   0  0  0  0  0  0  0  0  0  0  0  0  # atno 4531 bound_to 1957
   -9.2802  -36.5404  -32.8147 LP  0  0  0  0  0  0  0  0  0  0  0  0  # atno 5205 bound_to 1176
  -10.6385  -37.4468  -32.8142 LP  0  0  0  0  0  0  0  0  0  0  0  0  # atno 5206 bound_to 1176
  -15.7562  -28.6794  -37.0487 LP  0  0  0  0  0  0  0  0  0  0  0  0  # atno 5215 bound_to 1247
  -15.4914  -27.2118  -37.7141 LP  0  0  0  0  0  0  0  0  0  0  0  0  # atno 5216 bound_to 1247
  -12.9890  -25.1132  -38.8636 LP  0  0  0  0  0  0  0  0  0  0  0  0  # atno 5217 bound_to 1931
  -13.6513  -24.8317  -40.3294 LP  0  0  0  0  0  0  0  0  0  0  0  0  # atno 5218 bound_to 1931
  -12.5113  -22.5034  -30.3259 LP  0  0  0  0  0  0  0  0  0  0  0  0  # atno 5224 bound_to 1070
  -12.2453  -23.8437  -31.2200 LP  0  0  0  0  0  0  0  0  0  0  0  0  # atno 5225 bound_to 1070

$$$$
IA_45|SeH_inactivess_minimized|sdf|130|dock4
  -GOLD-   4172121443D 1   1.00000     0.00000

 66 68  0  0  0  0  0  0  0  0  1 V2000
   -8.0818  -30.6957  -35.4242 C   0  0  0  0  0  0  0  0  0  0  0  0
   -7.5397  -33.8190  -35.1274 C   0  0  0  0  0  0  0  0  0  0  0  0
  -13.2754  -25.5663  -37.0620 C   0  0  0  0  0  0  0  0  0  0  0  0
  -17.7754  -26.0128  -38.6523 C   0  0  0  0  0  0  0  0  0  0  0  0
  -17.4289  -23.8550  -39.8824 C   0  0  0  0  0  0  0  0  0  0  0  0
  -18.2471  -23.8294  -37.5120 C   0  0  0  0  0  0  0  0  0  0  0  0
  -15.4528  -25.2330  -39.1868 C   0  0  0  0  0  0  0  0  0  0  0  0
  -16.2721  -25.2076  -36.8140 C   0  0  0  0  0  0  0  0  0  0  0  0
  -15.9253  -23.0461  -38.0454 C   0  0  0  0  0  0  0  0  0  0  0  0
  -16.9046  -25.2886  -39.6928 C   0  0  0  0  0  0  0  0  0  0  0  0
  -17.7272  -25.2630  -37.3104 C   0  0  0  0  0  0  0  0  0  0  0  0
  -17.3790  -23.0935  -38.5468 C   0  0  0  0  0  0  0  0  0  0  0  0
  -15.3803  -24.4764  -37.8419 C   0  0  0  0  0  0  0  0  0  0  0  0
   -5.0093  -33.5110  -33.6163 C   0  0  0  0  0  0  0  0  0  0  0  0
   -4.2202  -31.7026  -35.1721 C   0  0  0  0  0  0  0  0  0  0  0  0
   -8.3948  -29.4597  -34.5977 C   0  0  0  0  0  0  0  0  0  0  0  0
   -9.6727  -28.7391  -35.0261 C   0  0  0  0  0  0  0  0  0  0  0  0
   -9.9607  -27.4332  -34.2746 C   0  0  0  0  0  0  0  0  0  0  0  0
  -11.1893  -26.6841  -34.8017 C   0  0  0  0  0  0  0  0  0  0  0  0
  -11.0157  -26.2234  -36.2462 C   0  0  0  0  0  0  0  0  0  0  0  0
   -6.5808  -32.6752  -35.4459 C   0  0  2  0  0  0  0  0  0  0  0  0
   -5.1168  -32.9367  -35.0315 C   0  0  0  0  0  0  0  0  0  0  0  0
   -7.0485  -31.4365  -34.8691 N   0  0  0  0  0  0  0  0  0  0  0  0
  -14.0146  -24.4281  -37.3678 N   0  0  0  0  0  0  0  0  0  0  0  0
  -11.9943  -25.2333  -36.6293 N   0  0  0  0  0  0  0  0  0  0  0  0
   -8.7000  -30.9994  -36.4409 O   0  0  0  0  0  0  0  0  0  0  0  0
   -8.0898  -33.9597  -34.0410 O   0  0  0  0  0  0  0  0  0  0  0  0
  -13.6962  -26.7183  -37.1604 O   0  0  0  0  0  0  0  0  0  0  0  0
   -7.7029  -34.7140  -36.1325 O   0  0  0  0  0  0  0  0  0  0  0  0
  -18.8105  -26.0756  -39.0096 H   0  0  0  0  0  0  0  0  0  0  0  0
  -17.4215  -27.0424  -38.5190 H   0  0  0  0  0  0  0  0  0  0  0  0
  -16.8256  -23.3316  -40.6344 H   0  0  0  0  0  0  0  0  0  0  0  0
  -18.4582  -23.8800  -40.2609 H   0  0  0  0  0  0  0  0  0  0  0  0
  -19.2908  -23.8533  -37.8486 H   0  0  0  0  0  0  0  0  0  0  0  0
  -18.2326  -23.2882  -36.5580 H   0  0  0  0  0  0  0  0  0  0  0  0
  -15.0602  -26.2520  -39.0720 H   0  0  0  0  0  0  0  0  0  0  0  0
  -14.8164  -24.7408  -39.9340 H   0  0  0  0  0  0  0  0  0  0  0  0
  -16.2290  -24.6969  -35.8430 H   0  0  0  0  0  0  0  0  0  0  0  0
  -15.8977  -26.2254  -36.6425 H   0  0  0  0  0  0  0  0  0  0  0  0
  -15.3007  -22.5004  -38.7647 H   0  0  0  0  0  0  0  0  0  0  0  0
  -15.8752  -22.4818  -37.1048 H   0  0  0  0  0  0  0  0  0  0  0  0
  -16.9435  -25.8261  -40.6469 H   0  0  0  0  0  0  0  0  0  0  0  0
  -18.3500  -25.7823  -36.5736 H   0  0  0  0  0  0  0  0  0  0  0  0
  -17.7553  -22.0742  -38.6876 H   0  0  0  0  0  0  0  0  0  0  0  0
   -3.9584  -33.6556  -33.3423 H   0  0  0  0  0  0  0  0  0  0  0  0
   -5.5046  -34.4853  -33.5514 H   0  0  0  0  0  0  0  0  0  0  0  0
   -5.4537  -32.8489  -32.8678 H   0  0  0  0  0  0  0  0  0  0  0  0
   -3.1628  -31.9754  -35.2489 H   0  0  0  0  0  0  0  0  0  0  0  0
   -4.4824  -31.1405  -36.0753 H   0  0  0  0  0  0  0  0  0  0  0  0
   -4.3374  -31.0268  -34.3193 H   0  0  0  0  0  0  0  0  0  0  0  0
   -8.5134  -29.7964  -33.5601 H   0  0  0  0  0  0  0  0  0  0  0  0
   -7.5386  -28.7775  -34.6145 H   0  0  0  0  0  0  0  0  0  0  0  0
   -9.6249  -28.5182  -36.0997 H   0  0  0  0  0  0  0  0  0  0  0  0
  -10.5213  -29.4206  -34.8877 H   0  0  0  0  0  0  0  0  0  0  0  0
   -9.0799  -26.7864  -34.3742 H   0  0  0  0  0  0  0  0  0  0  0  0
  -10.0775  -27.6358  -33.2044 H   0  0  0  0  0  0  0  0  0  0  0  0
  -12.0637  -27.3435  -34.7488 H   0  0  0  0  0  0  0  0  0  0  0  0
  -11.3980  -25.8134  -34.1698 H   0  0  0  0  0  0  0  0  0  0  0  0
  -10.0221  -25.7949  -36.4107 H   0  0  0  0  0  0  0  0  0  0  0  0
  -11.1367  -27.0725  -36.9265 H   0  0  0  0  0  0  0  0  0  0  0  0
   -6.6396  -32.5202  -36.5300 H   0  0  0  0  0  0  0  0  0  0  0  0
   -4.7139  -33.7038  -35.7079 H   0  0  0  0  0  0  0  0  0  0  0  0
   -6.5699  -31.0871  -34.0441 H   0  0  0  0  0  0  0  0  0  0  0  0
  -13.5749  -23.5213  -37.2528 H   0  0  0  0  0  0  0  0  0  0  0  0
  -11.7189  -24.2562  -36.6238 H   0  0  0  0  0  0  0  0  0  0  0  0
   -8.2903  -35.4700  -35.9234 H   0  0  0  0  0  0  0  0  0  0  0  0
  1 16  1  0  0  0  0
  1 23  1  0  0  0  0
  1 26  2  0  0  0  0
  2 21  1  0  0  0  0
  2 27  2  0  0  0  0
  2 29  1  0  0  0  0
  3 24  1  0  0  0  0
  3 25  1  0  0  0  0
  3 28  2  0  0  0  0
  4 10  1  0  0  0  0
  4 11  1  0  0  0  0
  5 10  1  0  0  0  0
  5 12  1  0  0  0  0
  6 11  1  0  0  0  0
  6 12  1  0  0  0  0
  7 10  1  0  0  0  0
  7 13  1  0  0  0  0
  8 11  1  0  0  0  0
  8 13  1  0  0  0  0
  9 12  1  0  0  0  0
  9 13  1  0  0  0  0
 13 24  1  0  0  0  0
 14 22  1  0  0  0  0
 15 22  1  0  0  0  0
 16 17  1  0  0  0  0
 17 18  1  0  0  0  0
 18 19  1  0  0  0  0
 19 20  1  0  0  0  0
 20 25  1  0  0  0  0
 21 22  1  0  0  0  0
 21 23  1  0  0  0  0
  4 30  1  0  0  0  0
  4 31  1  0  0  0  0
  5 32  1  0  0  0  0
  5 33  1  0  0  0  0
  6 34  1  0  0  0  0
  6 35  1  0  0  0  0
  7 36  1  0  0  0  0
  7 37  1  0  0  0  0
  8 38  1  0  0  0  0
  8 39  1  0  0  0  0
  9 40  1  0  0  0  0
  9 41  1  0  0  0  0
 10 42  1  0  0  0  0
 11 43  1  0  0  0  0
 12 44  1  0  0  0  0
 14 45  1  0  0  0  0
 14 46  1  0  0  0  0
 14 47  1  0  0  0  0
 15 48  1  0  0  0  0
 15 49  1  0  0  0  0
 15 50  1  0  0  0  0
 16 51  1  0  0  0  0
 16 52  1  0  0  0  0
 17 53  1  0  0  0  0
 17 54  1  0  0  0  0
 18 55  1  0  0  0  0
 18 56  1  0  0  0  0
 19 57  1  0  0  0  0
 19 58  1  0  0  0  0
 20 59  1  0  0  0  0
 20 60  1  0  0  0  0
 21 61  1  0  0  0  0
 22 62  1  0  0  0  0
 23 63  1  0  0  0  0
 24 64  1  0  0  0  0
 25 65  1  0  0  0  0
 29 66  1  0  0  0  0
M  END
> <Name>
IA_45

> <SourceTag>
IA_45

> <Gold.Version>
5.2

> <Gold.Id.Protein>
6HGV|6HGV_protein|mol2

> <Gold.Goldscore.Fitness>
69.4118

> <Gold.Goldscore.Internal.Vdw>
-4.4961

> <Gold.Goldscore.Internal.Torsion>
-4.9992

> <Gold.Goldscore.External.Vdw>
48.7554

> <Gold.Goldscore.Internal.HBond>
0.0000

> <Gold.Goldscore.External.HBond>
4.8262

> <Gold.Goldscore.Internal.Correction>
-7.0422

> <Gold.Goldscore.Hbonds>
donor molecule, donor type, donor heavy atom, donor atom, acceptor molecule, acceptor atom, score
      P1  H  1176  3781       L1    27  0.62
      P1  H  1247  3847       L1    28  0.04
      L1  H    24    64       P1   854  0.53
      L1  H    25    65       P1   854  0.05

> <Gold.Goldscore.Internal.Vdw.Weighted>
-4.4961

> <Gold.Goldscore.Internal.Torsion.Weighted>
-4.9992

> <Gold.Goldscore.External.Vdw.Weighted>
67.0386

> <Gold.Goldscore.Internal.HBond.Weighted>
0.0000

> <Gold.Goldscore.External.HBond.Weighted>
4.8262

> <Gold.Goldscore.Internal.Correction.Weighted>
-7.0422

> <Gold.Protein.RotatedTorsions>
[ 3781 1176 1175 1172 ] final -133.52 input   60.00 | X-H torsion
[ 3847 1247 1246 1244 ] final  142.72 input   60.00 | X-H torsion
[ 4507 1931 1930 1928 ] final  132.93 input   60.00 | X-H torsion
[ 3677 1070 1069 1066 ] final  -95.06 input   60.00 | X-H torsion
[ 3525  925  924  922 ] final   50.03 input   59.99 | X-H torsion
[ 4531 1957 1955 1953 ] final  115.66 input   60.00 | X-H torsion

> <Gold.Protein.ActiveResidues>
 PHE267  PRO268  MET310  ASP335  TRP336  MET339  TYR343  THR360  PRO361  ILE363 
 PRO371  SER374  ILE375  ASN378  PHE381  TYR383  GLN384  PHE387  LEU408  LEU417 
 MET419  LEU428  TYR466  MET469  ASN472  ASP496  VAL498  LEU499  MET503  HIS524 
 TRP525 

> <Gold.Protein.RotatedAtoms>
   -2.9542  -29.7903  -30.8678 H   0  0  0  0  0  0  0  0  0  0  0  0  # atno 3525 bound_to 925 
  -11.8076  -23.7839  -31.3981 H   0  0  0  0  0  0  0  0  0  0  0  0  # atno 3677 bound_to 1070
   -9.3539  -36.3118  -33.5643 H   0  0  0  0  0  0  0  0  0  0  0  0  # atno 3781 bound_to 1176
  -14.3457  -27.9422  -37.8871 H   0  0  0  0  0  0  0  0  0  0  0  0  # atno 3847 bound_to 1247
  -12.4914  -23.8441  -39.5419 H   0  0  0  0  0  0  0  0  0  0  0  0  # atno 4507 bound_to 1931
   -2.4460  -34.0281  -36.7935 H   0  0  0  0  0  0  0  0  0  0  0  0  # atno 4531 bound_to 1957
  -10.0265  -37.2014  -32.3794 LP  0  0  0  0  0  0  0  0  0  0  0  0  # atno 5205 bound_to 1176
  -10.7351  -37.1239  -33.8485 LP  0  0  0  0  0  0  0  0  0  0  0  0  # atno 5206 bound_to 1176
  -15.3951  -28.9078  -37.1031 LP  0  0  0  0  0  0  0  0  0  0  0  0  # atno 5215 bound_to 1247
  -15.8296  -27.3882  -37.5139 LP  0  0  0  0  0  0  0  0  0  0  0  0  # atno 5216 bound_to 1247
  -13.1193  -25.2247  -38.9521 LP  0  0  0  0  0  0  0  0  0  0  0  0  # atno 5217 bound_to 1931
  -13.5881  -24.6705  -40.4149 LP  0  0  0  0  0  0  0  0  0  0  0  0  # atno 5218 bound_to 1931
  -11.2833  -22.3476  -30.8409 LP  0  0  0  0  0  0  0  0  0  0  0  0  # atno 5224 bound_to 1070
  -12.7641  -22.8966  -30.4255 LP  0  0  0  0  0  0  0  0  0  0  0  0  # atno 5225 bound_to 1070

$$$$
IA_101.cdx|SeH_inactivess_minimized|sdf|3|dock3
  -GOLD-   4172118223D 1   1.00000     0.00000

 56 55  0  0  0  0  0  0  0  0  1 V2000
   -5.5346  -31.1102  -35.5465 C   0  0  0  0  0  0  0  0  0  0  0  0
  -22.6414  -22.5863  -39.8504 C   0  0  0  0  0  0  0  0  0  0  0  0
  -21.7094  -23.6406  -39.2742 C   0  0  0  0  0  0  0  0  0  0  0  0
  -21.4778  -23.4930  -37.7686 C   0  0  0  0  0  0  0  0  0  0  0  0
  -20.4027  -24.4066  -37.1701 C   0  0  0  0  0  0  0  0  0  0  0  0
  -18.9551  -24.0506  -37.5220 C   0  0  0  0  0  0  0  0  0  0  0  0
  -17.9212  -24.8351  -36.7105 C   0  0  0  0  0  0  0  0  0  0  0  0
  -16.5023  -24.5663  -37.2179 C   0  0  0  0  0  0  0  0  0  0  0  0
  -15.4264  -25.3645  -36.4750 C   0  0  0  0  0  0  0  0  0  0  0  0
  -13.9942  -25.2015  -36.9938 C   0  0  0  0  0  0  0  0  0  0  0  0
  -12.9470  -25.9025  -36.1263 C   0  0  0  0  0  0  0  0  0  0  0  0
  -11.5428  -25.3644  -36.4102 C   0  0  0  0  0  0  0  0  0  0  0  0
  -10.5222  -25.9196  -35.4137 C   0  0  0  0  0  0  0  0  0  0  0  0
  -10.1420  -27.3615  -35.7567 C   0  0  0  0  0  0  0  0  0  0  0  0
   -9.1209  -27.9702  -34.7905 C   0  0  0  0  0  0  0  0  0  0  0  0
   -8.4759  -29.2561  -35.3181 C   0  0  0  0  0  0  0  0  0  0  0  0
   -7.2923  -29.7078  -34.4671 C   0  0  0  0  0  0  0  0  0  0  0  0
   -5.2517  -32.4296  -35.8516 N   0  0  0  0  0  0  0  0  0  0  0  0
   -6.7578  -30.9706  -34.8954 N   0  0  0  0  0  0  0  0  0  0  0  0
   -4.7768  -30.1837  -35.8287 O   0  0  0  0  0  0  0  0  0  0  0  0
  -22.2143  -21.5842  -39.7440 H   0  0  0  0  0  0  0  0  0  0  0  0
  -23.6001  -22.6035  -39.3220 H   0  0  0  0  0  0  0  0  0  0  0  0
  -22.8441  -22.7656  -40.9102 H   0  0  0  0  0  0  0  0  0  0  0  0
  -20.7554  -23.6195  -39.8122 H   0  0  0  0  0  0  0  0  0  0  0  0
  -22.1461  -24.6294  -39.4598 H   0  0  0  0  0  0  0  0  0  0  0  0
  -22.4290  -23.6622  -37.2500 H   0  0  0  0  0  0  0  0  0  0  0  0
  -21.2015  -22.4528  -37.5536 H   0  0  0  0  0  0  0  0  0  0  0  0
  -20.6037  -25.4341  -37.4990 H   0  0  0  0  0  0  0  0  0  0  0  0
  -20.5033  -24.4167  -36.0781 H   0  0  0  0  0  0  0  0  0  0  0  0
  -18.7801  -24.2028  -38.5933 H   0  0  0  0  0  0  0  0  0  0  0  0
  -18.8159  -22.9778  -37.3378 H   0  0  0  0  0  0  0  0  0  0  0  0
  -18.1376  -25.9055  -36.7822 H   0  0  0  0  0  0  0  0  0  0  0  0
  -17.9934  -24.5548  -35.6529 H   0  0  0  0  0  0  0  0  0  0  0  0
  -16.4469  -24.7727  -38.2930 H   0  0  0  0  0  0  0  0  0  0  0  0
  -16.2746  -23.4994  -37.0990 H   0  0  0  0  0  0  0  0  0  0  0  0
  -15.6875  -26.4295  -36.5113 H   0  0  0  0  0  0  0  0  0  0  0  0
  -15.4537  -25.0778  -35.4162 H   0  0  0  0  0  0  0  0  0  0  0  0
  -13.7479  -24.1377  -37.0875 H   0  0  0  0  0  0  0  0  0  0  0  0
  -13.9535  -25.6152  -38.0094 H   0  0  0  0  0  0  0  0  0  0  0  0
  -13.1776  -25.7543  -35.0654 H   0  0  0  0  0  0  0  0  0  0  0  0
  -12.9729  -26.9819  -36.3184 H   0  0  0  0  0  0  0  0  0  0  0  0
  -11.5514  -24.2689  -36.3546 H   0  0  0  0  0  0  0  0  0  0  0  0
  -11.2449  -25.6347  -37.4306 H   0  0  0  0  0  0  0  0  0  0  0  0
  -10.9402  -25.8801  -34.4006 H   0  0  0  0  0  0  0  0  0  0  0  0
   -9.6308  -25.2828  -35.4234 H   0  0  0  0  0  0  0  0  0  0  0  0
  -11.0452  -27.9839  -35.7338 H   0  0  0  0  0  0  0  0  0  0  0  0
   -9.7525  -27.4089  -36.7809 H   0  0  0  0  0  0  0  0  0  0  0  0
   -9.6371  -28.1818  -33.8465 H   0  0  0  0  0  0  0  0  0  0  0  0
   -8.3423  -27.2313  -34.5653 H   0  0  0  0  0  0  0  0  0  0  0  0
   -8.1147  -29.0932  -36.3394 H   0  0  0  0  0  0  0  0  0  0  0  0
   -9.2273  -30.0541  -35.3614 H   0  0  0  0  0  0  0  0  0  0  0  0
   -6.4802  -28.9774  -34.5396 H   0  0  0  0  0  0  0  0  0  0  0  0
   -7.5732  -29.8014  -33.4134 H   0  0  0  0  0  0  0  0  0  0  0  0
   -4.3954  -32.6951  -36.3260 H   0  0  0  0  0  0  0  0  0  0  0  0
   -5.8955  -33.1746  -35.6071 H   0  0  0  0  0  0  0  0  0  0  0  0
   -7.3041  -31.8111  -34.7126 H   0  0  0  0  0  0  0  0  0  0  0  0
  1 18  1  0  0  0  0
  1 19  1  0  0  0  0
  1 20  2  0  0  0  0
  2  3  1  0  0  0  0
  3  4  1  0  0  0  0
  4  5  1  0  0  0  0
  5  6  1  0  0  0  0
  6  7  1  0  0  0  0
  7  8  1  0  0  0  0
  8  9  1  0  0  0  0
  9 10  1  0  0  0  0
 10 11  1  0  0  0  0
 11 12  1  0  0  0  0
 12 13  1  0  0  0  0
 13 14  1  0  0  0  0
 14 15  1  0  0  0  0
 15 16  1  0  0  0  0
 16 17  1  0  0  0  0
 17 19  1  0  0  0  0
  2 21  1  0  0  0  0
  2 22  1  0  0  0  0
  2 23  1  0  0  0  0
  3 24  1  0  0  0  0
  3 25  1  0  0  0  0
  4 26  1  0  0  0  0
  4 27  1  0  0  0  0
  5 28  1  0  0  0  0
  5 29  1  0  0  0  0
  6 30  1  0  0  0  0
  6 31  1  0  0  0  0
  7 32  1  0  0  0  0
  7 33  1  0  0  0  0
  8 34  1  0  0  0  0
  8 35  1  0  0  0  0
  9 36  1  0  0  0  0
  9 37  1  0  0  0  0
 10 38  1  0  0  0  0
 10 39  1  0  0  0  0
 11 40  1  0  0  0  0
 11 41  1  0  0  0  0
 12 42  1  0  0  0  0
 12 43  1  0  0  0  0
 13 44  1  0  0  0  0
 13 45  1  0  0  0  0
 14 46  1  0  0  0  0
 14 47  1  0  0  0  0
 15 48  1  0  0  0  0
 15 49  1  0  0  0  0
 16 50  1  0  0  0  0
 16 51  1  0  0  0  0
 17 52  1  0  0  0  0
 17 53  1  0  0  0  0
 18 54  1  0  0  0  0
 18 55  1  0  0  0  0
 19 56  1  0  0  0  0
M  END
> <Name>
IA_101.cdx

> <SourceTag>
IA_101

> <Gold.Version>
5.2

> <Gold.Id.Protein>
6HGV|6HGV_protein|mol2

> <Gold.Goldscore.Fitness>
67.7784

> <Gold.Goldscore.Internal.Vdw>
-7.1469

> <Gold.Goldscore.Internal.Torsion>
-3.8517

> <Gold.Goldscore.External.Vdw>
51.3101

> <Gold.Goldscore.Internal.HBond>
0.0000

> <Gold.Goldscore.External.HBond>
1.1707

> <Gold.Goldscore.Internal.Correction>
-7.0549

> <Gold.Goldscore.Hbonds>
donor molecule, donor type, donor heavy atom, donor atom, acceptor molecule, acceptor atom, score
      P1  H  1994  4571       L1    20  0.59

> <Gold.Goldscore.Internal.Vdw.Weighted>
-7.1469

> <Gold.Goldscore.Internal.Torsion.Weighted>
-3.8517

> <Gold.Goldscore.External.Vdw.Weighted>
70.5514

> <Gold.Goldscore.Internal.HBond.Weighted>
0.0000

> <Gold.Goldscore.External.HBond.Weighted>
1.1707

> <Gold.Goldscore.Internal.Correction.Weighted>
-7.0549

> <Gold.Protein.RotatedTorsions>
[ 3781 1176 1175 1172 ] final -155.82 input   60.00 | X-H torsion
[ 3847 1247 1246 1244 ] final  101.56 input   60.00 | X-H torsion
[ 4507 1931 1930 1928 ] final  113.05 input   60.00 | X-H torsion
[ 3677 1070 1069 1066 ] final  -53.69 input   60.00 | X-H torsion
[ 3525  925  924  922 ] final -172.66 input   59.99 | X-H torsion
[ 4531 1957 1955 1953 ] final  115.53 input   60.00 | X-H torsion

> <Gold.Protein.ActiveResidues>
 PHE267  PRO268  MET310  ASP335  TRP336  MET339  TYR343  THR360  PRO361  ILE363 
 PRO371  SER374  ILE375  ASN378  PHE381  TYR383  GLN384  PHE387  LEU408  LEU417 
 MET419  LEU428  TYR466  MET469  ASN472  ASP496  VAL498  LEU499  MET503  HIS524 
 TRP525 

> <Gold.Protein.RotatedAtoms>
   -2.3023  -30.2172  -29.3077 H   0  0  0  0  0  0  0  0  0  0  0  0  # atno 3525 bound_to 925 
  -12.4044  -23.7992  -31.1134 H   0  0  0  0  0  0  0  0  0  0  0  0  # atno 3677 bound_to 1070
   -9.2507  -36.3711  -33.2223 H   0  0  0  0  0  0  0  0  0  0  0  0  # atno 3781 bound_to 1176
  -14.3901  -28.5494  -37.6374 H   0  0  0  0  0  0  0  0  0  0  0  0  # atno 3847 bound_to 1247
  -12.4341  -23.9960  -39.2622 H   0  0  0  0  0  0  0  0  0  0  0  0  # atno 4507 bound_to 1931
   -2.4481  -34.0274  -36.7931 H   0  0  0  0  0  0  0  0  0  0  0  0  # atno 4531 bound_to 1957
  -10.3308  -37.3564  -32.5076 LP  0  0  0  0  0  0  0  0  0  0  0  0  # atno 5205 bound_to 1176
  -10.5347  -36.9092  -34.0648 LP  0  0  0  0  0  0  0  0  0  0  0  0  # atno 5206 bound_to 1176
  -15.9102  -28.4931  -37.0596 LP  0  0  0  0  0  0  0  0  0  0  0  0  # atno 5215 bound_to 1247
  -15.2698  -27.1913  -37.8089 LP  0  0  0  0  0  0  0  0  0  0  0  0  # atno 5216 bound_to 1247
  -13.3320  -25.3496  -39.1647 LP  0  0  0  0  0  0  0  0  0  0  0  0  # atno 5217 bound_to 1931
  -13.4332  -24.3926  -40.4840 LP  0  0  0  0  0  0  0  0  0  0  0  0  # atno 5218 bound_to 1931
  -11.0851  -22.8533  -31.2263 LP  0  0  0  0  0  0  0  0  0  0  0  0  # atno 5224 bound_to 1070
  -12.3613  -22.3754  -30.3267 LP  0  0  0  0  0  0  0  0  0  0  0  0  # atno 5225 bound_to 1070

$$$$
IA_97.cdx|SeH_inactivess_minimized|sdf|176|dock10
  -GOLD-   41821 8463D 1   1.00000     0.00000

 59 58  0  0  0  0  0  0  0  0  1 V2000
   -8.6947  -28.2756  -34.7471 C   0  0  0  0  0  0  0  0  0  0  0  0
  -23.7895  -23.0186  -37.6070 C   0  0  0  0  0  0  0  0  0  0  0  0
   -3.5843  -31.7601  -34.1347 C   0  0  0  0  0  0  0  0  0  0  0  0
  -22.4264  -23.0779  -36.9351 C   0  0  0  0  0  0  0  0  0  0  0  0
   -4.7926  -31.3725  -34.9729 C   0  0  0  0  0  0  0  0  0  0  0  0
  -21.4258  -23.9777  -37.6636 C   0  0  0  0  0  0  0  0  0  0  0  0
  -20.0170  -23.9254  -37.0660 C   0  0  0  0  0  0  0  0  0  0  0  0
  -19.0685  -24.8714  -37.8072 C   0  0  0  0  0  0  0  0  0  0  0  0
  -17.5881  -24.5751  -37.5495 C   0  0  0  0  0  0  0  0  0  0  0  0
  -16.6397  -25.5026  -38.3141 C   0  0  0  0  0  0  0  0  0  0  0  0
  -15.1858  -25.0466  -38.1668 C   0  0  0  0  0  0  0  0  0  0  0  0
  -14.5861  -25.3607  -36.7928 C   0  0  0  0  0  0  0  0  0  0  0  0
  -13.0572  -25.4479  -36.7381 C   0  0  0  0  0  0  0  0  0  0  0  0
  -12.4672  -25.9500  -35.4166 C   0  0  0  0  0  0  0  0  0  0  0  0
   -5.4213  -30.0683  -34.4770 C   0  0  0  0  0  0  0  0  0  0  0  0
  -10.9662  -26.2458  -35.4965 C   0  0  0  0  0  0  0  0  0  0  0  0
   -6.7192  -29.7303  -35.2031 C   0  0  0  0  0  0  0  0  0  0  0  0
  -10.3558  -26.5266  -34.1262 C   0  0  0  0  0  0  0  0  0  0  0  0
   -7.3230  -28.5123  -34.7144 N   0  0  0  0  0  0  0  0  0  0  0  0
   -9.0103  -27.0243  -34.2140 N   0  0  0  0  0  0  0  0  0  0  0  0
   -9.5273  -29.0665  -35.1885 O   0  0  0  0  0  0  0  0  0  0  0  0
  -23.7140  -22.5901  -38.6113 H   0  0  0  0  0  0  0  0  0  0  0  0
  -24.4697  -22.3916  -37.0217 H   0  0  0  0  0  0  0  0  0  0  0  0
  -24.2416  -24.0116  -37.6867 H   0  0  0  0  0  0  0  0  0  0  0  0
   -2.8730  -30.9309  -34.0653 H   0  0  0  0  0  0  0  0  0  0  0  0
   -3.8967  -32.0256  -33.1198 H   0  0  0  0  0  0  0  0  0  0  0  0
   -3.0667  -32.6222  -34.5671 H   0  0  0  0  0  0  0  0  0  0  0  0
  -22.0143  -22.0625  -36.8943 H   0  0  0  0  0  0  0  0  0  0  0  0
  -22.5450  -23.4135  -35.8983 H   0  0  0  0  0  0  0  0  0  0  0  0
   -4.4834  -31.2622  -36.0188 H   0  0  0  0  0  0  0  0  0  0  0  0
   -5.5263  -32.1856  -34.9348 H   0  0  0  0  0  0  0  0  0  0  0  0
  -21.3815  -23.6615  -38.7132 H   0  0  0  0  0  0  0  0  0  0  0  0
  -21.7917  -25.0116  -37.6603 H   0  0  0  0  0  0  0  0  0  0  0  0
  -20.0480  -24.2051  -36.0071 H   0  0  0  0  0  0  0  0  0  0  0  0
  -19.6422  -22.8975  -37.1235 H   0  0  0  0  0  0  0  0  0  0  0  0
  -19.2692  -24.8284  -38.8847 H   0  0  0  0  0  0  0  0  0  0  0  0
  -19.2707  -25.9019  -37.4896 H   0  0  0  0  0  0  0  0  0  0  0  0
  -17.4014  -24.6810  -36.4735 H   0  0  0  0  0  0  0  0  0  0  0  0
  -17.3724  -23.5308  -37.8061 H   0  0  0  0  0  0  0  0  0  0  0  0
  -16.7538  -26.5237  -37.9339 H   0  0  0  0  0  0  0  0  0  0  0  0
  -16.9040  -25.5166  -39.3772 H   0  0  0  0  0  0  0  0  0  0  0  0
  -14.5749  -25.5510  -38.9262 H   0  0  0  0  0  0  0  0  0  0  0  0
  -15.1086  -23.9734  -38.3748 H   0  0  0  0  0  0  0  0  0  0  0  0
  -15.0164  -26.3024  -36.4316 H   0  0  0  0  0  0  0  0  0  0  0  0
  -14.9113  -24.5914  -36.0810 H   0  0  0  0  0  0  0  0  0  0  0  0
  -12.6489  -24.4522  -36.9522 H   0  0  0  0  0  0  0  0  0  0  0  0
  -12.7019  -26.0966  -37.5476 H   0  0  0  0  0  0  0  0  0  0  0  0
  -12.6688  -25.2257  -34.6197 H   0  0  0  0  0  0  0  0  0  0  0  0
  -12.9972  -26.8693  -35.1371 H   0  0  0  0  0  0  0  0  0  0  0  0
   -5.6069  -30.1368  -33.3979 H   0  0  0  0  0  0  0  0  0  0  0  0
   -4.7116  -29.2465  -34.6311 H   0  0  0  0  0  0  0  0  0  0  0  0
  -10.4404  -25.4038  -35.9606 H   0  0  0  0  0  0  0  0  0  0  0  0
  -10.8060  -27.1217  -36.1365 H   0  0  0  0  0  0  0  0  0  0  0  0
   -7.4541  -30.5346  -35.0989 H   0  0  0  0  0  0  0  0  0  0  0  0
   -6.5234  -29.5840  -36.2702 H   0  0  0  0  0  0  0  0  0  0  0  0
  -10.9435  -27.2869  -33.6023 H   0  0  0  0  0  0  0  0  0  0  0  0
  -10.3389  -25.6226  -33.5094 H   0  0  0  0  0  0  0  0  0  0  0  0
   -6.7180  -27.7943  -34.3284 H   0  0  0  0  0  0  0  0  0  0  0  0
   -8.2547  -26.4595  -33.8306 H   0  0  0  0  0  0  0  0  0  0  0  0
  1 19  1  0  0  0  0
  1 20  1  0  0  0  0
  1 21  2  0  0  0  0
  2  4  1  0  0  0  0
  3  5  1  0  0  0  0
  4  6  1  0  0  0  0
  5 15  1  0  0  0  0
  6  7  1  0  0  0  0
  7  8  1  0  0  0  0
  8  9  1  0  0  0  0
  9 10  1  0  0  0  0
 10 11  1  0  0  0  0
 11 12  1  0  0  0  0
 12 13  1  0  0  0  0
 13 14  1  0  0  0  0
 14 16  1  0  0  0  0
 15 17  1  0  0  0  0
 16 18  1  0  0  0  0
 17 19  1  0  0  0  0
 18 20  1  0  0  0  0
  2 22  1  0  0  0  0
  2 23  1  0  0  0  0
  2 24  1  0  0  0  0
  3 25  1  0  0  0  0
  3 26  1  0  0  0  0
  3 27  1  0  0  0  0
  4 28  1  0  0  0  0
  4 29  1  0  0  0  0
  5 30  1  0  0  0  0
  5 31  1  0  0  0  0
  6 32  1  0  0  0  0
  6 33  1  0  0  0  0
  7 34  1  0  0  0  0
  7 35  1  0  0  0  0
  8 36  1  0  0  0  0
  8 37  1  0  0  0  0
  9 38  1  0  0  0  0
  9 39  1  0  0  0  0
 10 40  1  0  0  0  0
 10 41  1  0  0  0  0
 11 42  1  0  0  0  0
 11 43  1  0  0  0  0
 12 44  1  0  0  0  0
 12 45  1  0  0  0  0
 13 46  1  0  0  0  0
 13 47  1  0  0  0  0
 14 48  1  0  0  0  0
 14 49  1  0  0  0  0
 15 50  1  0  0  0  0
 15 51  1  0  0  0  0
 16 52  1  0  0  0  0
 16 53  1  0  0  0  0
 17 54  1  0  0  0  0
 17 55  1  0  0  0  0
 18 56  1  0  0  0  0
 18 57  1  0  0  0  0
 19 58  1  0  0  0  0
 20 59  1  0  0  0  0
M  END
> <Name>
IA_97.cdx

> <SourceTag>
IA_97

> <Gold.Version>
5.2

> <Gold.Id.Protein>
6HGV|6HGV_protein|mol2

> <Gold.Goldscore.Fitness>
65.1956

> <Gold.Goldscore.Internal.Vdw>
-6.3776

> <Gold.Goldscore.Internal.Torsion>
-4.3799

> <Gold.Goldscore.External.Vdw>
50.0100

> <Gold.Goldscore.Internal.HBond>
0.0000

> <Gold.Goldscore.External.HBond>
0.0501

> <Gold.Goldscore.Internal.Correction>
-7.1392

> <Gold.Goldscore.Hbonds>
donor molecule, donor type, donor heavy atom, donor atom, acceptor molecule, acceptor atom, score
      P1  H  1256  3854       L1    21  0.03

> <Gold.Goldscore.Internal.Vdw.Weighted>
-6.3776

> <Gold.Goldscore.Internal.Torsion.Weighted>
-4.3799

> <Gold.Goldscore.External.Vdw.Weighted>
68.7638

> <Gold.Goldscore.Internal.HBond.Weighted>
0.0000

> <Gold.Goldscore.External.HBond.Weighted>
0.0501

> <Gold.Goldscore.Internal.Correction.Weighted>
-7.1392

> <Gold.Protein.RotatedTorsions>
[ 3781 1176 1175 1172 ] final  -82.59 input   60.00 | X-H torsion
[ 3847 1247 1246 1244 ] final  119.60 input   60.00 | X-H torsion
[ 4507 1931 1930 1928 ] final -179.64 input   60.00 | X-H torsion
[ 3677 1070 1069 1066 ] final  -66.13 input   60.00 | X-H torsion
[ 3525  925  924  922 ] final   24.13 input   59.99 | X-H torsion
[ 4531 1957 1955 1953 ] final  -89.61 input   60.00 | X-H torsion

> <Gold.Protein.ActiveResidues>
 PHE267  PRO268  MET310  ASP335  TRP336  MET339  TYR343  THR360  PRO361  ILE363 
 PRO371  SER374  ILE375  ASN378  PHE381  TYR383  GLN384  PHE387  LEU408  LEU417 
 MET419  LEU428  TYR466  MET469  ASN472  ASP496  VAL498  LEU499  MET503  HIS524 
 TRP525 

> <Gold.Protein.RotatedAtoms>
   -3.3249  -29.6403  -30.7404 H   0  0  0  0  0  0  0  0  0  0  0  0  # atno 3525 bound_to 925 
  -12.2361  -23.8398  -31.2193 H   0  0  0  0  0  0  0  0  0  0  0  0  # atno 3677 bound_to 1070
   -9.9215  -36.4870  -34.1077 H   0  0  0  0  0  0  0  0  0  0  0  0  # atno 3781 bound_to 1176
  -14.3156  -28.2952  -37.7639 H   0  0  0  0  0  0  0  0  0  0  0  0  # atno 3847 bound_to 1247
  -12.8744  -23.8478  -40.1901 H   0  0  0  0  0  0  0  0  0  0  0  0  # atno 4507 bound_to 1931
   -1.5620  -32.4351  -36.9341 H   0  0  0  0  0  0  0  0  0  0  0  0  # atno 4531 bound_to 1957
   -9.4098  -36.7148  -32.5799 LP  0  0  0  0  0  0  0  0  0  0  0  0  # atno 5205 bound_to 1176
  -10.7802  -37.4340  -33.1008 LP  0  0  0  0  0  0  0  0  0  0  0  0  # atno 5206 bound_to 1176
  -15.7162  -28.7161  -37.0504 LP  0  0  0  0  0  0  0  0  0  0  0  0  # atno 5215 bound_to 1247
  -15.5387  -27.2244  -37.6907 LP  0  0  0  0  0  0  0  0  0  0  0  0  # atno 5216 bound_to 1247
  -12.6346  -24.6613  -38.8013 LP  0  0  0  0  0  0  0  0  0  0  0  0  # atno 5217 bound_to 1931
  -13.6870  -25.2302  -39.9128 LP  0  0  0  0  0  0  0  0  0  0  0  0  # atno 5218 bound_to 1931
  -11.0996  -22.6794  -31.1201 LP  0  0  0  0  0  0  0  0  0  0  0  0  # atno 5224 bound_to 1070
  -12.5164  -22.5085  -30.3263 LP  0  0  0  0  0  0  0  0  0  0  0  0  # atno 5225 bound_to 1070

$$$$
IA_209.cdx|SeH_inactivess_minimized|sdf|106|dock7
  -GOLD-   4172120523D 1   1.00000     0.00000

 26 26  0  0  0  0  0  0  0  0  1 V2000
  -17.8549  -25.1833  -36.5473 C   0  0  0  0  0  0  0  0  0  0  0  0
  -16.7127  -25.5223  -35.8221 C   0  0  0  0  0  0  0  0  0  0  0  0
  -17.7532  -24.3431  -37.6562 C   0  0  0  0  0  0  0  0  0  0  0  0
  -15.3670  -24.1808  -37.3142 C   0  0  0  0  0  0  0  0  0  0  0  0
  -15.4688  -25.0211  -36.2055 C   0  0  0  0  0  0  0  0  0  0  0  0
  -16.5093  -23.8418  -38.0395 C   0  0  0  0  0  0  0  0  0  0  0  0
  -12.9969  -25.3394  -35.8901 C   0  0  0  0  0  0  0  0  0  0  0  0
  -10.0329  -25.7655  -33.8007 C   0  0  0  0  0  0  0  0  0  0  0  0
  -10.4527  -26.9870  -35.9648 C   0  0  0  0  0  0  0  0  0  0  0  0
  -10.7892  -25.7674  -35.1205 C   0  0  0  0  0  0  0  0  0  0  0  0
  -14.3273  -25.3601  -35.4785 N   0  0  0  0  0  0  0  0  0  0  0  0
  -12.5679  -25.0138  -36.9904 O   0  0  0  0  0  0  0  0  0  0  0  0
  -12.1970  -25.7500  -34.8571 O   0  0  0  0  0  0  0  0  0  0  0  0
  -16.3835  -22.8051  -39.4076 Cl  0  0  0  0  0  0  0  0  0  0  0  0
  -18.8236  -25.5738  -36.2487 H   0  0  0  0  0  0  0  0  0  0  0  0
  -16.8044  -26.1779  -34.9596 H   0  0  0  0  0  0  0  0  0  0  0  0
  -18.6518  -24.0880  -38.2116 H   0  0  0  0  0  0  0  0  0  0  0  0
  -14.3952  -23.7919  -37.6106 H   0  0  0  0  0  0  0  0  0  0  0  0
  -10.3162  -26.6207  -33.1795 H   0  0  0  0  0  0  0  0  0  0  0  0
   -8.9532  -25.8057  -33.9803 H   0  0  0  0  0  0  0  0  0  0  0  0
  -10.2238  -24.8451  -33.2380 H   0  0  0  0  0  0  0  0  0  0  0  0
  -10.9404  -26.9397  -36.9432 H   0  0  0  0  0  0  0  0  0  0  0  0
  -10.7745  -27.9026  -35.4572 H   0  0  0  0  0  0  0  0  0  0  0  0
   -9.3712  -27.0752  -36.1164 H   0  0  0  0  0  0  0  0  0  0  0  0
  -10.5491  -24.8576  -35.6805 H   0  0  0  0  0  0  0  0  0  0  0  0
  -14.4892  -25.6650  -34.5130 H   0  0  0  0  0  0  0  0  0  0  0  0
  1  2  2  0  0  0  0
  1  3  1  0  0  0  0
  2  5  1  0  0  0  0
  3  6  2  0  0  0  0
  4  5  2  0  0  0  0
  4  6  1  0  0  0  0
  5 11  1  0  0  0  0
  6 14  1  0  0  0  0
  7 11  1  0  0  0  0
  7 12  2  0  0  0  0
  7 13  1  0  0  0  0
  8 10  1  0  0  0  0
  9 10  1  0  0  0  0
 10 13  1  0  0  0  0
  1 15  1  0  0  0  0
  2 16  1  0  0  0  0
  3 17  1  0  0  0  0
  4 18  1  0  0  0  0
  8 19  1  0  0  0  0
  8 20  1  0  0  0  0
  8 21  1  0  0  0  0
  9 22  1  0  0  0  0
  9 23  1  0  0  0  0
  9 24  1  0  0  0  0
 10 25  1  0  0  0  0
 11 26  1  0  0  0  0
M  END
> <Name>
IA_209.cdx

> <SourceTag>
IA_209

> <Gold.Version>
5.2

> <Gold.Id.Protein>
6HGV|6HGV_protein|mol2

> <Gold.Goldscore.Fitness>
48.7050

> <Gold.Goldscore.Internal.Vdw>
-2.8187

> <Gold.Goldscore.Internal.Torsion>
-1.7473

> <Gold.Goldscore.External.Vdw>
34.4634

> <Gold.Goldscore.Internal.HBond>
0.0000

> <Gold.Goldscore.External.HBond>
2.0000

> <Gold.Goldscore.Internal.Correction>
-3.8838

> <Gold.Goldscore.Hbonds>
donor molecule, donor type, donor heavy atom, donor atom, acceptor molecule, acceptor atom, score
      P1  H  1931  4507       L1    12  1.00

> <Gold.Goldscore.Internal.Vdw.Weighted>
-2.8187

> <Gold.Goldscore.Internal.Torsion.Weighted>
-1.7473

> <Gold.Goldscore.External.Vdw.Weighted>
47.3872

> <Gold.Goldscore.Internal.HBond.Weighted>
0.0000

> <Gold.Goldscore.External.HBond.Weighted>
2.0000

> <Gold.Goldscore.Internal.Correction.Weighted>
-3.8838

> <Gold.Protein.RotatedTorsions>
[ 3781 1176 1175 1172 ] final  111.76 input   60.00 | X-H torsion
[ 3847 1247 1246 1244 ] final  -63.12 input   60.00 | X-H torsion
[ 4507 1931 1930 1928 ] final   48.09 input   60.00 | X-H torsion
[ 3677 1070 1069 1066 ] final  -90.63 input   60.00 | X-H torsion
[ 3525  925  924  922 ] final  -66.28 input   59.99 | X-H torsion
[ 4531 1957 1955 1953 ] final   43.59 input   60.00 | X-H torsion

> <Gold.Protein.ActiveResidues>
 PHE267  PRO268  MET310  ASP335  TRP336  MET339  TYR343  THR360  PRO361  ILE363 
 PRO371  SER374  ILE375  ASN378  PHE381  TYR383  GLN384  PHE387  LEU408  LEU417 
 MET419  LEU428  TYR466  MET469  ASN472  ASP496  VAL498  LEU499  MET503  HIS524 
 TRP525 

> <Gold.Protein.RotatedAtoms>
   -3.6647  -29.6097  -29.4562 H   0  0  0  0  0  0  0  0  0  0  0  0  # atno 3525 bound_to 925 
  -11.8735  -23.8058  -31.3782 H   0  0  0  0  0  0  0  0  0  0  0  0  # atno 3677 bound_to 1070
   -9.9524  -37.1565  -32.3751 H   0  0  0  0  0  0  0  0  0  0  0  0  # atno 3781 bound_to 1176
  -16.0559  -27.8235  -37.2612 H   0  0  0  0  0  0  0  0  0  0  0  0  # atno 3847 bound_to 1247
  -12.7447  -24.8293  -38.7930 H   0  0  0  0  0  0  0  0  0  0  0  0  # atno 4507 bound_to 1931
   -3.0988  -33.1517  -36.6543 H   0  0  0  0  0  0  0  0  0  0  0  0  # atno 4531 bound_to 1957
  -10.7681  -37.1704  -33.7831 LP  0  0  0  0  0  0  0  0  0  0  0  0  # atno 5205 bound_to 1176
   -9.3909  -36.3042  -33.6425 LP  0  0  0  0  0  0  0  0  0  0  0  0  # atno 5206 bound_to 1176
  -14.6263  -27.4717  -37.9543 LP  0  0  0  0  0  0  0  0  0  0  0  0  # atno 5215 bound_to 1247
  -14.8761  -28.9438  -37.2931 LP  0  0  0  0  0  0  0  0  0  0  0  0  # atno 5216 bound_to 1247
  -13.7023  -25.1146  -40.0774 LP  0  0  0  0  0  0  0  0  0  0  0  0  # atno 5217 bound_to 1931
  -12.7500  -23.7885  -40.0439 LP  0  0  0  0  0  0  0  0  0  0  0  0  # atno 5218 bound_to 1931
  -11.2427  -22.3893  -30.8846 LP  0  0  0  0  0  0  0  0  0  0  0  0  # atno 5224 bound_to 1070
  -12.7383  -22.8327  -30.4018 LP  0  0  0  0  0  0  0  0  0  0  0  0  # atno 5225 bound_to 1070

$$$$
IA_123.cdx|SeH_inactivess_minimized|sdf|24|dock7
  -GOLD-   4172119 43D 1   1.00000     0.00000

 40 41  0  0  0  0  0  0  0  0  1 V2000
  -10.8622  -32.6084  -34.4521 C   0  0  0  0  0  0  0  0  0  0  0  0
   -8.0582  -33.5806  -36.0769 C   0  0  0  0  0  0  0  0  0  0  0  0
  -10.0291  -33.5380  -33.8297 C   0  0  0  0  0  0  0  0  0  0  0  0
  -10.6924  -31.2457  -34.2071 C   0  0  0  0  0  0  0  0  0  0  0  0
   -7.1042  -33.8199  -35.0879 C   0  0  0  0  0  0  0  0  0  0  0  0
   -8.5426  -32.2885  -36.2808 C   0  0  0  0  0  0  0  0  0  0  0  0
   -9.0262  -33.1051  -32.9623 C   0  0  0  0  0  0  0  0  0  0  0  0
   -9.6896  -30.8127  -33.3397 C   0  0  0  0  0  0  0  0  0  0  0  0
   -6.6347  -32.7671  -34.3025 C   0  0  0  0  0  0  0  0  0  0  0  0
   -8.0731  -31.2358  -35.4954 C   0  0  0  0  0  0  0  0  0  0  0  0
   -8.8564  -31.7423  -32.7173 C   0  0  0  0  0  0  0  0  0  0  0  0
   -7.1191  -31.4750  -34.5063 C   0  0  0  0  0  0  0  0  0  0  0  0
   -6.8029  -30.4149  -32.2828 C   0  0  0  0  0  0  0  0  0  0  0  0
   -6.6271  -32.6167  -30.1465 C   0  0  0  0  0  0  0  0  0  0  0  0
   -4.4786  -29.3417  -34.1785 C   0  0  0  0  0  0  0  0  0  0  0  0
   -7.8054  -31.7454  -30.4208 C   0  0  0  0  0  0  0  0  0  0  0  0
   -5.9592  -29.2392  -34.3202 C   0  0  0  0  0  0  0  0  0  0  0  0
   -7.8166  -31.2937  -31.8181 N   0  0  0  0  0  0  0  0  0  0  0  0
   -6.6321  -30.3836  -33.6921 N   0  0  0  0  0  0  0  0  0  0  0  0
   -6.1188  -29.7278  -31.5164 O   0  0  0  0  0  0  0  0  0  0  0  0
  -11.6427  -32.9451  -35.1282 H   0  0  0  0  0  0  0  0  0  0  0  0
   -8.4235  -34.4000  -36.6892 H   0  0  0  0  0  0  0  0  0  0  0  0
  -10.1604  -34.5989  -34.0209 H   0  0  0  0  0  0  0  0  0  0  0  0
  -11.3407  -30.5220  -34.6927 H   0  0  0  0  0  0  0  0  0  0  0  0
   -6.7261  -34.8256  -34.9295 H   0  0  0  0  0  0  0  0  0  0  0  0
   -9.2848  -32.1025  -37.0517 H   0  0  0  0  0  0  0  0  0  0  0  0
   -8.3828  -33.8387  -32.4831 H   0  0  0  0  0  0  0  0  0  0  0  0
   -9.5665  -29.7482  -33.1564 H   0  0  0  0  0  0  0  0  0  0  0  0
   -5.8910  -32.9655  -33.5348 H   0  0  0  0  0  0  0  0  0  0  0  0
   -8.4579  -30.2328  -35.6633 H   0  0  0  0  0  0  0  0  0  0  0  0
   -6.6285  -32.9594  -29.1061 H   0  0  0  0  0  0  0  0  0  0  0  0
   -6.6210  -33.4859  -30.8131 H   0  0  0  0  0  0  0  0  0  0  0  0
   -5.7015  -32.0536  -30.3155 H   0  0  0  0  0  0  0  0  0  0  0  0
   -4.1056  -30.2661  -34.6325 H   0  0  0  0  0  0  0  0  0  0  0  0
   -3.9816  -28.4842  -34.6450 H   0  0  0  0  0  0  0  0  0  0  0  0
   -4.2072  -29.3537  -33.1160 H   0  0  0  0  0  0  0  0  0  0  0  0
   -7.7819  -30.8567  -29.7828 H   0  0  0  0  0  0  0  0  0  0  0  0
   -8.7387  -32.2859  -30.2377 H   0  0  0  0  0  0  0  0  0  0  0  0
   -6.2431  -29.2238  -35.3768 H   0  0  0  0  0  0  0  0  0  0  0  0
   -6.3326  -28.3292  -33.8415 H   0  0  0  0  0  0  0  0  0  0  0  0
  1  3  2  0  0  0  0
  1  4  1  0  0  0  0
  2  5  2  0  0  0  0
  2  6  1  0  0  0  0
  3  7  1  0  0  0  0
  4  8  2  0  0  0  0
  5  9  1  0  0  0  0
  6 10  2  0  0  0  0
  7 11  2  0  0  0  0
  8 11  1  0  0  0  0
  9 12  2  0  0  0  0
 10 12  1  0  0  0  0
 11 18  1  0  0  0  0
 12 19  1  0  0  0  0
 13 18  1  0  0  0  0
 13 19  1  0  0  0  0
 13 20  2  0  0  0  0
 14 16  1  0  0  0  0
 15 17  1  0  0  0  0
 16 18  1  0  0  0  0
 17 19  1  0  0  0  0
  1 21  1  0  0  0  0
  2 22  1  0  0  0  0
  3 23  1  0  0  0  0
  4 24  1  0  0  0  0
  5 25  1  0  0  0  0
  6 26  1  0  0  0  0
  7 27  1  0  0  0  0
  8 28  1  0  0  0  0
  9 29  1  0  0  0  0
 10 30  1  0  0  0  0
 14 31  1  0  0  0  0
 14 32  1  0  0  0  0
 14 33  1  0  0  0  0
 15 34  1  0  0  0  0
 15 35  1  0  0  0  0
 15 36  1  0  0  0  0
 16 37  1  0  0  0  0
 16 38  1  0  0  0  0
 17 39  1  0  0  0  0
 17 40  1  0  0  0  0
M  END
> <Name>
IA_123.cdx

> <SourceTag>
IA_123

> <Gold.Version>
5.2

> <Gold.Id.Protein>
6HGV|6HGV_protein|mol2

> <Gold.Goldscore.Fitness>
36.9070

> <Gold.Goldscore.Internal.Vdw>
1.7031

> <Gold.Goldscore.Internal.Torsion>
-16.7155

> <Gold.Goldscore.External.Vdw>
27.1839

> <Gold.Goldscore.Internal.HBond>
0.0000

> <Gold.Goldscore.External.HBond>
0.5124

> <Gold.Goldscore.Internal.Correction>
-14.0291

> <Gold.Goldscore.Hbonds>
donor molecule, donor type, donor heavy atom, donor atom, acceptor molecule, acceptor atom, score
      P1  H   925  3525       L1    20  0.26

> <Gold.Goldscore.Internal.Vdw.Weighted>
1.7031

> <Gold.Goldscore.Internal.Torsion.Weighted>
-16.7155

> <Gold.Goldscore.External.Vdw.Weighted>
37.3779

> <Gold.Goldscore.Internal.HBond.Weighted>
0.0000

> <Gold.Goldscore.External.HBond.Weighted>
0.5124

> <Gold.Goldscore.Internal.Correction.Weighted>
-14.0291

> <Gold.Protein.RotatedTorsions>
[ 3781 1176 1175 1172 ] final -178.56 input   60.00 | X-H torsion
[ 3847 1247 1246 1244 ] final   -9.76 input   60.00 | X-H torsion
[ 4507 1931 1930 1928 ] final  -19.65 input   60.00 | X-H torsion
[ 3677 1070 1069 1066 ] final  -42.69 input   60.00 | X-H torsion
[ 3525  925  924  922 ] final   -9.55 input   59.99 | X-H torsion
[ 4531 1957 1955 1953 ] final   26.01 input   60.00 | X-H torsion

> <Gold.Protein.ActiveResidues>
 PHE267  PRO268  MET310  ASP335  TRP336  MET339  TYR343  THR360  PRO361  ILE363 
 PRO371  SER374  ILE375  ASN378  PHE381  TYR383  GLN384  PHE387  LEU408  LEU417 
 MET419  LEU428  TYR466  MET469  ASN472  ASP496  VAL498  LEU499  MET503  HIS524 
 TRP525 

> <Gold.Protein.RotatedAtoms>
   -3.6739  -29.5246  -30.3418 H   0  0  0  0  0  0  0  0  0  0  0  0  # atno 3525 bound_to 925 
  -12.5357  -23.7325  -31.0109 H   0  0  0  0  0  0  0  0  0  0  0  0  # atno 3677 bound_to 1070
   -9.2666  -36.5097  -32.8806 H   0  0  0  0  0  0  0  0  0  0  0  0  # atno 3781 bound_to 1176
  -15.8211  -28.6040  -37.0548 H   0  0  0  0  0  0  0  0  0  0  0  0  # atno 3847 bound_to 1247
  -13.4482  -25.3773  -39.3349 H   0  0  0  0  0  0  0  0  0  0  0  0  # atno 4507 bound_to 1931
   -3.0610  -32.8680  -36.6566 H   0  0  0  0  0  0  0  0  0  0  0  0  # atno 4531 bound_to 1957
  -10.5954  -37.4404  -32.7546 LP  0  0  0  0  0  0  0  0  0  0  0  0  # atno 5205 bound_to 1176
  -10.2542  -36.6856  -34.1619 LP  0  0  0  0  0  0  0  0  0  0  0  0  # atno 5206 bound_to 1176
  -15.4019  -27.1963  -37.7552 LP  0  0  0  0  0  0  0  0  0  0  0  0  # atno 5215 bound_to 1247
  -14.3370  -28.4331  -37.7000 LP  0  0  0  0  0  0  0  0  0  0  0  0  # atno 5216 bound_to 1247
  -13.3099  -24.2246  -40.4751 LP  0  0  0  0  0  0  0  0  0  0  0  0  # atno 5217 bound_to 1931
  -12.4341  -24.1265  -39.1003 LP  0  0  0  0  0  0  0  0  0  0  0  0  # atno 5218 bound_to 1931
  -11.1062  -23.0135  -31.3072 LP  0  0  0  0  0  0  0  0  0  0  0  0  # atno 5224 bound_to 1070
  -12.2081  -22.2824  -30.3491 LP  0  0  0  0  0  0  0  0  0  0  0  0  # atno 5225 bound_to 1070

$$$$
IA_163.cdx|SeH_inactivess_minimized|sdf|65|dock2
  -GOLD-   4172120 43D 1   1.00000     0.00000

 20 19  0  0  0  0  0  0  0  0  1 V2000
  -12.4683  -26.0956  -34.8331 C   0  0  0  0  0  0  0  0  0  0  0  0
   -9.3011  -25.8909  -34.4932 C   0  0  0  0  0  0  0  0  0  0  0  0
  -15.9028  -25.3876  -36.1180 C   0  0  0  0  0  0  0  0  0  0  0  0
  -10.3763  -25.6258  -33.4951 C   0  0  0  0  0  0  0  0  0  0  0  0
  -14.6380  -26.1768  -36.1350 C   0  0  0  0  0  0  0  0  0  0  0  0
  -11.6158  -25.2468  -34.1487 N   0  0  0  0  0  0  0  0  0  0  0  0
  -13.5961  -25.5115  -35.3773 N   0  0  0  0  0  0  0  0  0  0  0  0
  -12.2336  -27.7470  -35.0452 S   0  0  0  0  0  0  0  0  0  0  0  0
   -8.3361  -26.0418  -33.9971 H   0  0  0  0  0  0  0  0  0  0  0  0
   -9.5383  -26.7733  -35.0974 H   0  0  0  0  0  0  0  0  0  0  0  0
   -9.2028  -25.0335  -35.1697 H   0  0  0  0  0  0  0  0  0  0  0  0
  -16.6799  -25.8820  -36.7108 H   0  0  0  0  0  0  0  0  0  0  0  0
  -16.2633  -25.2502  -35.0927 H   0  0  0  0  0  0  0  0  0  0  0  0
  -15.7273  -24.3956  -36.5511 H   0  0  0  0  0  0  0  0  0  0  0  0
  -10.0872  -24.8082  -32.8280 H   0  0  0  0  0  0  0  0  0  0  0  0
  -10.5760  -26.5175  -32.8937 H   0  0  0  0  0  0  0  0  0  0  0  0
  -14.2774  -26.3012  -37.1605 H   0  0  0  0  0  0  0  0  0  0  0  0
  -14.7917  -27.1656  -35.6931 H   0  0  0  0  0  0  0  0  0  0  0  0
  -11.8622  -24.2653  -34.0878 H   0  0  0  0  0  0  0  0  0  0  0  0
  -13.7061  -24.5126  -35.2309 H   0  0  0  0  0  0  0  0  0  0  0  0
  1  6  1  0  0  0  0
  1  7  1  0  0  0  0
  1  8  2  0  0  0  0
  2  4  1  0  0  0  0
  3  5  1  0  0  0  0
  4  6  1  0  0  0  0
  5  7  1  0  0  0  0
  2  9  1  0  0  0  0
  2 10  1  0  0  0  0
  2 11  1  0  0  0  0
  3 12  1  0  0  0  0
  3 13  1  0  0  0  0
  3 14  1  0  0  0  0
  4 15  1  0  0  0  0
  4 16  1  0  0  0  0
  5 17  1  0  0  0  0
  5 18  1  0  0  0  0
  6 19  1  0  0  0  0
  7 20  1  0  0  0  0
M  END
> <Name>
IA_163.cdx

> <SourceTag>
IA_163

> <Gold.Version>
5.2

> <Gold.Id.Protein>
6HGV|6HGV_protein|mol2

> <Gold.Goldscore.Fitness>
37.4297

> <Gold.Goldscore.Internal.Vdw>
-2.0336

> <Gold.Goldscore.Internal.Torsion>
-1.2958

> <Gold.Goldscore.External.Vdw>
24.8032

> <Gold.Goldscore.Internal.HBond>
0.0000

> <Gold.Goldscore.External.HBond>
3.9227

> <Gold.Goldscore.Internal.Correction>
-2.7320

> <Gold.Goldscore.Hbonds>
donor molecule, donor type, donor heavy atom, donor atom, acceptor molecule, acceptor atom, score
      L1  H     7    20       P1   853  0.65

> <Gold.Goldscore.Internal.Vdw.Weighted>
-2.0336

> <Gold.Goldscore.Internal.Torsion.Weighted>
-1.2958

> <Gold.Goldscore.External.Vdw.Weighted>
34.1044

> <Gold.Goldscore.Internal.HBond.Weighted>
0.0000

> <Gold.Goldscore.External.HBond.Weighted>
3.9227

> <Gold.Goldscore.Internal.Correction.Weighted>
-2.7320

> <Gold.Protein.RotatedTorsions>
[ 3781 1176 1175 1172 ] final  -38.07 input   60.00 | X-H torsion
[ 3847 1247 1246 1244 ] final   52.46 input   60.00 | X-H torsion
[ 4507 1931 1930 1928 ] final   40.62 input   60.00 | X-H torsion
[ 3677 1070 1069 1066 ] final  -84.38 input   60.00 | X-H torsion
[ 3525  925  924  922 ] final -162.00 input   59.99 | X-H torsion
[ 4531 1957 1955 1953 ] final   49.13 input   60.00 | X-H torsion

> <Gold.Protein.ActiveResidues>
 PHE267  PRO268  MET310  ASP335  TRP336  MET339  TYR343  THR360  PRO361  ILE363 
 PRO371  SER374  ILE375  ASN378  PHE381  TYR383  GLN384  PHE387  LEU408  LEU417 
 MET419  LEU428  TYR466  MET469  ASN472  ASP496  VAL498  LEU499  MET503  HIS524 
 TRP525 

> <Gold.Protein.RotatedAtoms>
   -2.4245  -30.1746  -29.1913 H   0  0  0  0  0  0  0  0  0  0  0  0  # atno 3525 bound_to 925 
  -11.9674  -23.8288  -31.3451 H   0  0  0  0  0  0  0  0  0  0  0  0  # atno 3677 bound_to 1070
  -10.5052  -36.8885  -34.0754 H   0  0  0  0  0  0  0  0  0  0  0  0  # atno 3781 bound_to 1176
  -14.9434  -28.9514  -37.2665 H   0  0  0  0  0  0  0  0  0  0  0  0  # atno 3847 bound_to 1247
  -12.8183  -24.9259  -38.8026 H   0  0  0  0  0  0  0  0  0  0  0  0  # atno 4507 bound_to 1931
   -3.0928  -33.2419  -36.6570 H   0  0  0  0  0  0  0  0  0  0  0  0  # atno 4531 bound_to 1957
   -9.2425  -36.3762  -33.1860 LP  0  0  0  0  0  0  0  0  0  0  0  0  # atno 5205 bound_to 1176
  -10.3597  -37.3683  -32.5272 LP  0  0  0  0  0  0  0  0  0  0  0  0  # atno 5206 bound_to 1176
  -16.0475  -27.7562  -37.2876 LP  0  0  0  0  0  0  0  0  0  0  0  0  # atno 5215 bound_to 1247
  -14.5752  -27.5234  -37.9545 LP  0  0  0  0  0  0  0  0  0  0  0  0  # atno 5216 bound_to 1247
  -13.6974  -25.0320  -40.1679 LP  0  0  0  0  0  0  0  0  0  0  0  0  # atno 5217 bound_to 1931
  -12.6809  -23.7738  -39.9436 LP  0  0  0  0  0  0  0  0  0  0  0  0  # atno 5218 bound_to 1931
  -11.1926  -22.4545  -30.9464 LP  0  0  0  0  0  0  0  0  0  0  0  0  # atno 5224 bound_to 1070
  -12.6940  -22.7444  -30.3733 LP  0  0  0  0  0  0  0  0  0  0  0  0  # atno 5225 bound_to 1070

$$$$
IA_39|SeH_inactivess_minimized|sdf|125|dock7
  -GOLD-   4172121283D 1   1.00000     0.00000

 66 70  0  0  0  0  0  0  0  0  1 V2000
   -9.8173  -24.9862  -34.7274 C   0  0  0  0  0  0  0  0  0  0  0  0
   -9.1300  -26.1705  -34.4620 C   0  0  0  0  0  0  0  0  0  0  0  0
  -11.1374  -25.0313  -35.1757 C   0  0  0  0  0  0  0  0  0  0  0  0
   -9.7629  -27.4001  -34.6449 C   0  0  0  0  0  0  0  0  0  0  0  0
  -11.7703  -26.2608  -35.3585 C   0  0  0  0  0  0  0  0  0  0  0  0
  -11.0831  -27.4452  -35.0930 C   0  0  0  0  0  0  0  0  0  0  0  0
  -13.7478  -25.3835  -36.6630 C   0  0  0  0  0  0  0  0  0  0  0  0
  -17.7033  -24.8283  -40.1119 C   0  0  0  0  0  0  0  0  0  0  0  0
  -16.6404  -22.6773  -39.3817 C   0  0  0  0  0  0  0  0  0  0  0  0
  -18.5704  -23.6237  -38.0902 C   0  0  0  0  0  0  0  0  0  0  0  0
  -15.4011  -24.8412  -39.1182 C   0  0  0  0  0  0  0  0  0  0  0  0
  -17.3333  -25.7886  -37.8254 C   0  0  0  0  0  0  0  0  0  0  0  0
  -16.2692  -23.6343  -37.0936 C   0  0  0  0  0  0  0  0  0  0  0  0
   -8.2823  -33.6311  -33.4238 C   0  0  0  0  0  0  0  0  0  0  0  0
   -8.9933  -33.6515  -35.7163 C   0  0  0  0  0  0  0  0  0  0  0  0
   -9.6851  -33.2043  -32.9849 C   0  0  0  0  0  0  0  0  0  0  0  0
  -10.4005  -33.2245  -35.2911 C   0  0  0  0  0  0  0  0  0  0  0  0
  -16.3772  -24.0559  -40.0112 C   0  0  0  0  0  0  0  0  0  0  0  0
  -18.3171  -25.0072  -38.7131 C   0  0  0  0  0  0  0  0  0  0  0  0
  -17.2488  -22.8447  -37.9790 C   0  0  0  0  0  0  0  0  0  0  0  0
  -15.9954  -25.0258  -37.7042 C   0  0  0  0  0  0  0  0  0  0  0  0
  -12.1819  -30.8675  -34.4770 C   0  0  0  0  0  0  0  0  0  0  0  0
  -11.6972  -32.0434  -33.6352 C   0  0  0  0  0  0  0  0  0  0  0  0
  -11.1424  -29.7564  -34.5356 C   0  0  0  0  0  0  0  0  0  0  0  0
   -8.3163  -34.4113  -34.6630 N   0  0  0  0  0  0  0  0  0  0  0  0
  -10.3536  -32.4434  -34.0484 N   0  0  0  0  0  0  0  0  0  0  0  0
  -13.1098  -26.2900  -35.8115 N   0  0  0  0  0  0  0  0  0  0  0  0
  -15.0764  -25.7665  -36.8678 N   0  0  0  0  0  0  0  0  0  0  0  0
  -13.2479  -24.3852  -37.1761 O   0  0  0  0  0  0  0  0  0  0  0  0
  -11.6830  -28.6570  -35.2650 O   0  0  0  0  0  0  0  0  0  0  0  0
   -9.3242  -24.0290  -34.5858 H   0  0  0  0  0  0  0  0  0  0  0  0
   -8.1019  -26.1357  -34.1137 H   0  0  0  0  0  0  0  0  0  0  0  0
  -11.6627  -24.1016  -35.3792 H   0  0  0  0  0  0  0  0  0  0  0  0
   -9.2215  -28.3189  -34.4368 H   0  0  0  0  0  0  0  0  0  0  0  0
  -18.4025  -24.2876  -40.7616 H   0  0  0  0  0  0  0  0  0  0  0  0
  -17.5321  -25.8083  -40.5740 H   0  0  0  0  0  0  0  0  0  0  0  0
  -15.7042  -22.1093  -39.3184 H   0  0  0  0  0  0  0  0  0  0  0  0
  -17.3214  -22.0992  -40.0187 H   0  0  0  0  0  0  0  0  0  0  0  0
  -19.2853  -23.0619  -38.7037 H   0  0  0  0  0  0  0  0  0  0  0  0
  -19.0232  -23.7373  -37.0975 H   0  0  0  0  0  0  0  0  0  0  0  0
  -15.1866  -25.8178  -39.5715 H   0  0  0  0  0  0  0  0  0  0  0  0
  -14.4409  -24.3117  -39.0602 H   0  0  0  0  0  0  0  0  0  0  0  0
  -17.7722  -25.9452  -36.8312 H   0  0  0  0  0  0  0  0  0  0  0  0
  -17.1638  -26.7881  -38.2471 H   0  0  0  0  0  0  0  0  0  0  0  0
  -15.3305  -23.0753  -36.9862 H   0  0  0  0  0  0  0  0  0  0  0  0
  -16.6833  -23.7370  -36.0818 H   0  0  0  0  0  0  0  0  0  0  0  0
   -7.6398  -32.7507  -33.5531 H   0  0  0  0  0  0  0  0  0  0  0  0
   -7.8302  -34.2429  -32.6354 H   0  0  0  0  0  0  0  0  0  0  0  0
   -9.0626  -34.2767  -36.6133 H   0  0  0  0  0  0  0  0  0  0  0  0
   -8.3954  -32.7714  -35.9853 H   0  0  0  0  0  0  0  0  0  0  0  0
  -10.2719  -34.0914  -32.7120 H   0  0  0  0  0  0  0  0  0  0  0  0
   -9.5925  -32.5829  -32.0865 H   0  0  0  0  0  0  0  0  0  0  0  0
  -10.8354  -32.6185  -36.0945 H   0  0  0  0  0  0  0  0  0  0  0  0
  -11.0339  -34.1132  -35.1698 H   0  0  0  0  0  0  0  0  0  0  0  0
  -15.9450  -23.9302  -41.0102 H   0  0  0  0  0  0  0  0  0  0  0  0
  -19.2619  -25.5565  -38.7910 H   0  0  0  0  0  0  0  0  0  0  0  0
  -17.4359  -21.8599  -37.5368 H   0  0  0  0  0  0  0  0  0  0  0  0
  -12.4162  -31.1971  -35.4977 H   0  0  0  0  0  0  0  0  0  0  0  0
  -13.1185  -30.4636  -34.0711 H   0  0  0  0  0  0  0  0  0  0  0  0
  -12.3789  -32.8941  -33.7439 H   0  0  0  0  0  0  0  0  0  0  0  0
  -11.6767  -31.7653  -32.5760 H   0  0  0  0  0  0  0  0  0  0  0  0
  -10.2341  -30.0976  -35.0425 H   0  0  0  0  0  0  0  0  0  0  0  0
  -10.8816  -29.4123  -33.5298 H   0  0  0  0  0  0  0  0  0  0  0  0
   -7.3643  -34.6270  -34.9564 H   0  0  0  0  0  0  0  0  0  0  0  0
  -13.6778  -27.0645  -35.4771 H   0  0  0  0  0  0  0  0  0  0  0  0
  -15.4129  -26.6054  -36.4072 H   0  0  0  0  0  0  0  0  0  0  0  0
  1  2  1  0  0  0  0
  1  3  2  0  0  0  0
  2  4  2  0  0  0  0
  3  5  1  0  0  0  0
  4  6  1  0  0  0  0
  5  6  2  0  0  0  0
  5 27  1  0  0  0  0
  6 30  1  0  0  0  0
  7 27  1  0  0  0  0
  7 28  1  0  0  0  0
  7 29  2  0  0  0  0
  8 18  1  0  0  0  0
  8 19  1  0  0  0  0
  9 18  1  0  0  0  0
  9 20  1  0  0  0  0
 10 19  1  0  0  0  0
 10 20  1  0  0  0  0
 11 18  1  0  0  0  0
 11 21  1  0  0  0  0
 12 19  1  0  0  0  0
 12 21  1  0  0  0  0
 13 20  1  0  0  0  0
 13 21  1  0  0  0  0
 14 16  1  0  0  0  0
 14 25  1  0  0  0  0
 15 17  1  0  0  0  0
 15 25  1  0  0  0  0
 16 26  1  0  0  0  0
 17 26  1  0  0  0  0
 21 28  1  0  0  0  0
 22 23  1  0  0  0  0
 22 24  1  0  0  0  0
 23 26  1  0  0  0  0
 24 30  1  0  0  0  0
  1 31  1  0  0  0  0
  2 32  1  0  0  0  0
  3 33  1  0  0  0  0
  4 34  1  0  0  0  0
  8 35  1  0  0  0  0
  8 36  1  0  0  0  0
  9 37  1  0  0  0  0
  9 38  1  0  0  0  0
 10 39  1  0  0  0  0
 10 40  1  0  0  0  0
 11 41  1  0  0  0  0
 11 42  1  0  0  0  0
 12 43  1  0  0  0  0
 12 44  1  0  0  0  0
 13 45  1  0  0  0  0
 13 46  1  0  0  0  0
 14 47  1  0  0  0  0
 14 48  1  0  0  0  0
 15 49  1  0  0  0  0
 15 50  1  0  0  0  0
 16 51  1  0  0  0  0
 16 52  1  0  0  0  0
 17 53  1  0  0  0  0
 17 54  1  0  0  0  0
 18 55  1  0  0  0  0
 19 56  1  0  0  0  0
 20 57  1  0  0  0  0
 22 58  1  0  0  0  0
 22 59  1  0  0  0  0
 23 60  1  0  0  0  0
 23 61  1  0  0  0  0
 24 62  1  0  0  0  0
 24 63  1  0  0  0  0
 25 64  1  0  0  0  0
 27 65  1  0  0  0  0
 28 66  1  0  0  0  0
M  END
> <Name>
IA_39

> <SourceTag>
IA_39

> <Gold.Version>
5.2

> <Gold.Id.Protein>
6HGV|6HGV_protein|mol2

> <Gold.Goldscore.Fitness>
54.0450

> <Gold.Goldscore.Internal.Vdw>
-10.2293

> <Gold.Goldscore.Internal.Torsion>
-4.0329

> <Gold.Goldscore.External.Vdw>
38.6515

> <Gold.Goldscore.Internal.HBond>
0.0000

> <Gold.Goldscore.External.HBond>
2.2152

> <Gold.Goldscore.Internal.Correction>
-12.9462

> <Gold.Goldscore.Hbonds>
donor molecule, donor type, donor heavy atom, donor atom, acceptor molecule, acceptor atom, score
      P1  H  1256  3854       L1    30  0.15
      P1  H  1176  3781       L1    25  0.95

> <Gold.Goldscore.Internal.Vdw.Weighted>
-10.2293

> <Gold.Goldscore.Internal.Torsion.Weighted>
-4.0329

> <Gold.Goldscore.External.Vdw.Weighted>
53.1458

> <Gold.Goldscore.Internal.HBond.Weighted>
0.0000

> <Gold.Goldscore.External.HBond.Weighted>
2.2152

> <Gold.Goldscore.Internal.Correction.Weighted>
-12.9462

> <Gold.Protein.RotatedTorsions>
[ 3781 1176 1175 1172 ] final -120.04 input   60.00 | X-H torsion
[ 3847 1247 1246 1244 ] final   97.54 input   60.00 | X-H torsion
[ 4507 1931 1930 1928 ] final  128.63 input   60.00 | X-H torsion
[ 3677 1070 1069 1066 ] final -125.07 input   60.00 | X-H torsion
[ 3525  925  924  922 ] final  -84.51 input   59.99 | X-H torsion
[ 4531 1957 1955 1953 ] final -106.71 input   60.00 | X-H torsion

> <Gold.Protein.ActiveResidues>
 PHE267  PRO268  MET310  ASP335  TRP336  MET339  TYR343  THR360  PRO361  ILE363 
 PRO371  SER374  ILE375  ASN378  PHE381  TYR383  GLN384  PHE387  LEU408  LEU417 
 MET419  LEU428  TYR466  MET469  ASN472  ASP496  VAL498  LEU499  MET503  HIS524 
 TRP525 

> <Gold.Protein.RotatedAtoms>
   -3.4968  -29.7035  -29.2306 H   0  0  0  0  0  0  0  0  0  0  0  0  # atno 3525 bound_to 925 
  -11.4022  -23.5230  -31.4488 H   0  0  0  0  0  0  0  0  0  0  0  0  # atno 3677 bound_to 1070
   -9.4674  -36.3171  -33.7524 H   0  0  0  0  0  0  0  0  0  0  0  0  # atno 3781 bound_to 1176
  -14.4177  -28.6006  -37.6070 H   0  0  0  0  0  0  0  0  0  0  0  0  # atno 3847 bound_to 1247
  -12.4728  -23.8701  -39.4792 H   0  0  0  0  0  0  0  0  0  0  0  0  # atno 4507 bound_to 1931
   -1.3887  -32.6500  -36.9707 H   0  0  0  0  0  0  0  0  0  0  0  0  # atno 4531 bound_to 1957
   -9.8405  -37.0824  -32.3657 LP  0  0  0  0  0  0  0  0  0  0  0  0  # atno 5205 bound_to 1176
  -10.8069  -37.2376  -33.6728 LP  0  0  0  0  0  0  0  0  0  0  0  0  # atno 5206 bound_to 1176
  -15.9443  -28.4371  -37.0676 LP  0  0  0  0  0  0  0  0  0  0  0  0  # atno 5215 bound_to 1247
  -15.2078  -27.1958  -37.8315 LP  0  0  0  0  0  0  0  0  0  0  0  0  # atno 5216 bound_to 1247
  -13.1668  -25.2589  -38.9920 LP  0  0  0  0  0  0  0  0  0  0  0  0  # atno 5217 bound_to 1931
  -13.5593  -24.6101  -40.4382 LP  0  0  0  0  0  0  0  0  0  0  0  0  # atno 5218 bound_to 1931
  -11.6491  -22.1791  -30.5650 LP  0  0  0  0  0  0  0  0  0  0  0  0  # atno 5224 bound_to 1070
  -12.8066  -23.3279  -30.6502 LP  0  0  0  0  0  0  0  0  0  0  0  0  # atno 5225 bound_to 1070

$$$$
IA_172.cdx|SeH_inactivess_minimized|sdf|75|dock8
  -GOLD-   4172120173D 1   1.00000     0.00000

 34 33  0  0  0  0  0  0  0  0  1 V2000
  -11.7874  -26.6101  -36.2839 C   0  0  0  0  0  0  0  0  0  0  0  0
   -6.8761  -29.6179  -35.1326 C   0  0  0  0  0  0  0  0  0  0  0  0
  -15.9847  -24.4950  -38.6471 C   0  0  0  0  0  0  0  0  0  0  0  0
  -11.4747  -24.9766  -33.5191 C   0  0  0  0  0  0  0  0  0  0  0  0
   -8.3457  -29.4771  -34.7679 C   0  0  0  0  0  0  0  0  0  0  0  0
  -14.7313  -24.1486  -37.8568 C   0  0  0  0  0  0  0  0  0  0  0  0
   -8.9004  -28.1173  -35.1986 C   0  0  0  0  0  0  0  0  0  0  0  0
  -10.4561  -25.4214  -34.5126 C   0  0  0  0  0  0  0  0  0  0  0  0
  -10.3181  -27.8754  -34.6911 C   0  0  0  0  0  0  0  0  0  0  0  0
  -14.0166  -25.4086  -37.3814 C   0  0  0  0  0  0  0  0  0  0  0  0
  -10.8891  -26.6362  -35.2052 N   0  0  0  0  0  0  0  0  0  0  0  0
  -12.1685  -27.6127  -36.8841 O   0  0  0  0  0  0  0  0  0  0  0  0
  -12.3570  -25.0100  -36.7904 S   0  0  0  0  0  0  0  0  0  0  0  0
   -6.7361  -29.5814  -36.2177 H   0  0  0  0  0  0  0  0  0  0  0  0
   -6.2955  -28.8036  -34.6875 H   0  0  0  0  0  0  0  0  0  0  0  0
   -6.4692  -30.5653  -34.7648 H   0  0  0  0  0  0  0  0  0  0  0  0
  -16.6692  -25.1054  -38.0493 H   0  0  0  0  0  0  0  0  0  0  0  0
  -16.5120  -23.5819  -38.9408 H   0  0  0  0  0  0  0  0  0  0  0  0
  -15.7339  -25.0500  -39.5568 H   0  0  0  0  0  0  0  0  0  0  0  0
  -11.0528  -24.2350  -32.8321 H   0  0  0  0  0  0  0  0  0  0  0  0
  -12.3485  -24.5475  -34.0214 H   0  0  0  0  0  0  0  0  0  0  0  0
  -11.8129  -25.8339  -32.9247 H   0  0  0  0  0  0  0  0  0  0  0  0
   -8.9139  -30.2805  -35.2509 H   0  0  0  0  0  0  0  0  0  0  0  0
   -8.4563  -29.6061  -33.6853 H   0  0  0  0  0  0  0  0  0  0  0  0
  -15.0163  -23.5249  -37.0008 H   0  0  0  0  0  0  0  0  0  0  0  0
  -14.0682  -23.5503  -38.4932 H   0  0  0  0  0  0  0  0  0  0  0  0
   -8.2373  -27.3199  -34.8412 H   0  0  0  0  0  0  0  0  0  0  0  0
   -8.9086  -28.0638  -36.2940 H   0  0  0  0  0  0  0  0  0  0  0  0
   -9.5062  -25.6408  -34.0160 H   0  0  0  0  0  0  0  0  0  0  0  0
  -10.2882  -24.6487  -35.2686 H   0  0  0  0  0  0  0  0  0  0  0  0
  -10.3465  -27.8300  -33.5978 H   0  0  0  0  0  0  0  0  0  0  0  0
  -10.9752  -28.6886  -35.0154 H   0  0  0  0  0  0  0  0  0  0  0  0
  -14.5707  -25.8825  -36.5649 H   0  0  0  0  0  0  0  0  0  0  0  0
  -13.9291  -26.1340  -38.1966 H   0  0  0  0  0  0  0  0  0  0  0  0
  1 11  1  0  0  0  0
  1 12  2  0  0  0  0
  1 13  1  0  0  0  0
  2  5  1  0  0  0  0
  3  6  1  0  0  0  0
  4  8  1  0  0  0  0
  5  7  1  0  0  0  0
  6 10  1  0  0  0  0
  7  9  1  0  0  0  0
  8 11  1  0  0  0  0
  9 11  1  0  0  0  0
 10 13  1  0  0  0  0
  2 14  1  0  0  0  0
  2 15  1  0  0  0  0
  2 16  1  0  0  0  0
  3 17  1  0  0  0  0
  3 18  1  0  0  0  0
  3 19  1  0  0  0  0
  4 20  1  0  0  0  0
  4 21  1  0  0  0  0
  4 22  1  0  0  0  0
  5 23  1  0  0  0  0
  5 24  1  0  0  0  0
  6 25  1  0  0  0  0
  6 26  1  0  0  0  0
  7 27  1  0  0  0  0
  7 28  1  0  0  0  0
  8 29  1  0  0  0  0
  8 30  1  0  0  0  0
  9 31  1  0  0  0  0
  9 32  1  0  0  0  0
 10 33  1  0  0  0  0
 10 34  1  0  0  0  0
M  END
> <Name>
IA_172.cdx

> <SourceTag>
IA_172

> <Gold.Version>
5.2

> <Gold.Id.Protein>
6HGV|6HGV_protein|mol2

> <Gold.Goldscore.Fitness>
46.0128

> <Gold.Goldscore.Internal.Vdw>
-4.1765

> <Gold.Goldscore.Internal.Torsion>
-2.6477

> <Gold.Goldscore.External.Vdw>
34.3004

> <Gold.Goldscore.Internal.HBond>
0.0000

> <Gold.Goldscore.External.HBond>
0.0955

> <Gold.Goldscore.Internal.Correction>
-5.5785

> <Gold.Goldscore.Hbonds>
donor molecule, donor type, donor heavy atom, donor atom, acceptor molecule, acceptor atom, score
      P1  H  1247  3847       L1    12  0.05

> <Gold.Goldscore.Internal.Vdw.Weighted>
-4.1765

> <Gold.Goldscore.Internal.Torsion.Weighted>
-2.6477

> <Gold.Goldscore.External.Vdw.Weighted>
47.1630

> <Gold.Goldscore.Internal.HBond.Weighted>
0.0000

> <Gold.Goldscore.External.HBond.Weighted>
0.0955

> <Gold.Goldscore.Internal.Correction.Weighted>
-5.5785

> <Gold.Protein.RotatedTorsions>
[ 3781 1176 1175 1172 ] final  -35.56 input   60.00 | X-H torsion
[ 3847 1247 1246 1244 ] final  107.74 input   60.00 | X-H torsion
[ 4507 1931 1930 1928 ] final -125.25 input   60.00 | X-H torsion
[ 3677 1070 1069 1066 ] final  -37.63 input   60.00 | X-H torsion
[ 3525  925  924  922 ] final  -89.69 input   59.99 | X-H torsion
[ 4531 1957 1955 1953 ] final    2.72 input   60.00 | X-H torsion

> <Gold.Protein.ActiveResidues>
 PHE267  PRO268  MET310  ASP335  TRP336  MET339  TYR343  THR360  PRO361  ILE363 
 PRO371  SER374  ILE375  ASN378  PHE381  TYR383  GLN384  PHE387  LEU408  LEU417 
 MET419  LEU428  TYR466  MET469  ASN472  ASP496  VAL498  LEU499  MET503  HIS524 
 TRP525 

> <Gold.Protein.RotatedAtoms>
   -3.4374  -29.7342  -29.1785 H   0  0  0  0  0  0  0  0  0  0  0  0  # atno 3525 bound_to 925 
  -12.5891  -23.6928  -30.9620 H   0  0  0  0  0  0  0  0  0  0  0  0  # atno 3677 bound_to 1070
  -10.5328  -36.9134  -34.0581 H   0  0  0  0  0  0  0  0  0  0  0  0  # atno 3781 bound_to 1176
  -14.3552  -28.4663  -37.6829 H   0  0  0  0  0  0  0  0  0  0  0  0  # atno 3847 bound_to 1247
  -13.4440  -24.4183  -40.4770 H   0  0  0  0  0  0  0  0  0  0  0  0  # atno 4507 bound_to 1931
   -2.8856  -32.5342  -36.6842 H   0  0  0  0  0  0  0  0  0  0  0  0  # atno 4531 bound_to 1957
   -9.2470  -36.3645  -33.2253 LP  0  0  0  0  0  0  0  0  0  0  0  0  # atno 5205 bound_to 1176
  -10.3274  -37.3549  -32.5053 LP  0  0  0  0  0  0  0  0  0  0  0  0  # atno 5206 bound_to 1176
  -15.8509  -28.5753  -37.0514 LP  0  0  0  0  0  0  0  0  0  0  0  0  # atno 5215 bound_to 1247
  -15.3642  -27.1928  -37.7713 LP  0  0  0  0  0  0  0  0  0  0  0  0  # atno 5216 bound_to 1247
  -12.4334  -23.9745  -39.2814 LP  0  0  0  0  0  0  0  0  0  0  0  0  # atno 5217 bound_to 1931
  -13.3147  -25.3424  -39.1439 LP  0  0  0  0  0  0  0  0  0  0  0  0  # atno 5218 bound_to 1931
  -11.1264  -23.0875  -31.3394 LP  0  0  0  0  0  0  0  0  0  0  0  0  # atno 5224 bound_to 1070
  -12.1341  -22.2484  -30.3661 LP  0  0  0  0  0  0  0  0  0  0  0  0  # atno 5225 bound_to 1070

$$$$
IA_100.cdx|SeH_inactivess_minimized|sdf|2|dock6
  -GOLD-   4172118193D 1   1.00000     0.00000

 59 58  0  0  0  0  0  0  0  0  1 V2000
   -7.2950  -29.5232  -35.1591 C   0  0  0  0  0  0  0  0  0  0  0  0
  -22.1472  -22.7596  -39.7342 C   0  0  0  0  0  0  0  0  0  0  0  0
   -3.7237  -32.6987  -34.3523 C   0  0  0  0  0  0  0  0  0  0  0  0
  -22.4414  -24.0698  -39.0194 C   0  0  0  0  0  0  0  0  0  0  0  0
   -4.3070  -31.3265  -34.0466 C   0  0  0  0  0  0  0  0  0  0  0  0
  -21.4821  -24.2940  -37.8500 C   0  0  0  0  0  0  0  0  0  0  0  0
  -20.0059  -24.2243  -38.2512 C   0  0  0  0  0  0  0  0  0  0  0  0
  -19.0648  -24.8505  -37.2197 C   0  0  0  0  0  0  0  0  0  0  0  0
  -17.5994  -24.6500  -37.6135 C   0  0  0  0  0  0  0  0  0  0  0  0
  -16.6554  -25.1946  -36.5402 C   0  0  0  0  0  0  0  0  0  0  0  0
  -15.1909  -24.9943  -36.9335 C   0  0  0  0  0  0  0  0  0  0  0  0
  -14.2514  -25.7170  -35.9668 C   0  0  0  0  0  0  0  0  0  0  0  0
  -12.7868  -25.5168  -36.3600 C   0  0  0  0  0  0  0  0  0  0  0  0
  -11.8439  -26.1651  -35.3437 C   0  0  0  0  0  0  0  0  0  0  0  0
  -10.3817  -25.8447  -35.6621 C   0  0  0  0  0  0  0  0  0  0  0  0
   -9.3919  -26.4701  -34.6741 C   0  0  0  0  0  0  0  0  0  0  0  0
   -5.1321  -30.7670  -35.1993 C   0  0  0  0  0  0  0  0  0  0  0  0
   -9.2254  -27.9781  -34.8589 C   0  0  0  0  0  0  0  0  0  0  0  0
   -5.9574  -29.6524  -34.7950 N   0  0  0  0  0  0  0  0  0  0  0  0
   -7.8361  -28.3626  -34.6329 N   0  0  0  0  0  0  0  0  0  0  0  0
   -7.9088  -30.3327  -35.8532 O   0  0  0  0  0  0  0  0  0  0  0  0
  -21.1960  -22.8264  -40.2714 H   0  0  0  0  0  0  0  0  0  0  0  0
  -22.9318  -22.5244  -40.4604 H   0  0  0  0  0  0  0  0  0  0  0  0
  -22.0774  -21.9308  -39.0224 H   0  0  0  0  0  0  0  0  0  0  0  0
   -3.1374  -33.0727  -33.5069 H   0  0  0  0  0  0  0  0  0  0  0  0
   -4.5282  -33.4145  -34.5492 H   0  0  0  0  0  0  0  0  0  0  0  0
   -3.0771  -32.6698  -35.2348 H   0  0  0  0  0  0  0  0  0  0  0  0
  -23.4772  -24.0489  -38.6643 H   0  0  0  0  0  0  0  0  0  0  0  0
  -22.3574  -24.8959  -39.7347 H   0  0  0  0  0  0  0  0  0  0  0  0
   -3.4834  -30.6354  -33.8327 H   0  0  0  0  0  0  0  0  0  0  0  0
   -4.9210  -31.3898  -33.1403 H   0  0  0  0  0  0  0  0  0  0  0  0
  -21.6645  -23.5282  -37.0858 H   0  0  0  0  0  0  0  0  0  0  0  0
  -21.6903  -25.2632  -37.3804 H   0  0  0  0  0  0  0  0  0  0  0  0
  -19.7384  -23.1687  -38.3851 H   0  0  0  0  0  0  0  0  0  0  0  0
  -19.8660  -24.7109  -39.2242 H   0  0  0  0  0  0  0  0  0  0  0  0
  -19.2668  -25.9235  -37.1292 H   0  0  0  0  0  0  0  0  0  0  0  0
  -19.2451  -24.4004  -36.2361 H   0  0  0  0  0  0  0  0  0  0  0  0
  -17.4032  -25.1561  -38.5666 H   0  0  0  0  0  0  0  0  0  0  0  0
  -17.4026  -23.5821  -37.7676 H   0  0  0  0  0  0  0  0  0  0  0  0
  -16.8522  -24.6888  -35.5870 H   0  0  0  0  0  0  0  0  0  0  0  0
  -16.8517  -26.2627  -36.3859 H   0  0  0  0  0  0  0  0  0  0  0  0
  -15.0293  -25.3688  -37.9516 H   0  0  0  0  0  0  0  0  0  0  0  0
  -14.9563  -23.9229  -36.9420 H   0  0  0  0  0  0  0  0  0  0  0  0
  -14.4862  -26.7883  -35.9587 H   0  0  0  0  0  0  0  0  0  0  0  0
  -14.4130  -25.3427  -34.9487 H   0  0  0  0  0  0  0  0  0  0  0  0
  -12.6111  -25.9490  -37.3525 H   0  0  0  0  0  0  0  0  0  0  0  0
  -12.5686  -24.4442  -36.4308 H   0  0  0  0  0  0  0  0  0  0  0  0
  -11.9916  -27.2517  -35.3477 H   0  0  0  0  0  0  0  0  0  0  0  0
  -12.0977  -25.8055  -34.3404 H   0  0  0  0  0  0  0  0  0  0  0  0
  -10.1442  -26.2192  -36.6657 H   0  0  0  0  0  0  0  0  0  0  0  0
  -10.2375  -24.7577  -35.6888 H   0  0  0  0  0  0  0  0  0  0  0  0
   -9.7547  -26.2673  -33.6580 H   0  0  0  0  0  0  0  0  0  0  0  0
   -8.4188  -25.9713  -34.7661 H   0  0  0  0  0  0  0  0  0  0  0  0
   -4.4703  -30.4040  -35.9919 H   0  0  0  0  0  0  0  0  0  0  0  0
   -5.7879  -31.5321  -35.6266 H   0  0  0  0  0  0  0  0  0  0  0  0
   -9.5058  -28.2764  -35.8735 H   0  0  0  0  0  0  0  0  0  0  0  0
   -9.8702  -28.5197  -34.1586 H   0  0  0  0  0  0  0  0  0  0  0  0
   -5.5418  -28.9280  -34.2175 H   0  0  0  0  0  0  0  0  0  0  0  0
   -7.2801  -27.7724  -34.0339 H   0  0  0  0  0  0  0  0  0  0  0  0
  1 19  1  0  0  0  0
  1 20  1  0  0  0  0
  1 21  2  0  0  0  0
  2  4  1  0  0  0  0
  3  5  1  0  0  0  0
  4  6  1  0  0  0  0
  5 17  1  0  0  0  0
  6  7  1  0  0  0  0
  7  8  1  0  0  0  0
  8  9  1  0  0  0  0
  9 10  1  0  0  0  0
 10 11  1  0  0  0  0
 11 12  1  0  0  0  0
 12 13  1  0  0  0  0
 13 14  1  0  0  0  0
 14 15  1  0  0  0  0
 15 16  1  0  0  0  0
 16 18  1  0  0  0  0
 17 19  1  0  0  0  0
 18 20  1  0  0  0  0
  2 22  1  0  0  0  0
  2 23  1  0  0  0  0
  2 24  1  0  0  0  0
  3 25  1  0  0  0  0
  3 26  1  0  0  0  0
  3 27  1  0  0  0  0
  4 28  1  0  0  0  0
  4 29  1  0  0  0  0
  5 30  1  0  0  0  0
  5 31  1  0  0  0  0
  6 32  1  0  0  0  0
  6 33  1  0  0  0  0
  7 34  1  0  0  0  0
  7 35  1  0  0  0  0
  8 36  1  0  0  0  0
  8 37  1  0  0  0  0
  9 38  1  0  0  0  0
  9 39  1  0  0  0  0
 10 40  1  0  0  0  0
 10 41  1  0  0  0  0
 11 42  1  0  0  0  0
 11 43  1  0  0  0  0
 12 44  1  0  0  0  0
 12 45  1  0  0  0  0
 13 46  1  0  0  0  0
 13 47  1  0  0  0  0
 14 48  1  0  0  0  0
 14 49  1  0  0  0  0
 15 50  1  0  0  0  0
 15 51  1  0  0  0  0
 16 52  1  0  0  0  0
 16 53  1  0  0  0  0
 17 54  1  0  0  0  0
 17 55  1  0  0  0  0
 18 56  1  0  0  0  0
 18 57  1  0  0  0  0
 19 58  1  0  0  0  0
 20 59  1  0  0  0  0
M  END
> <Name>
IA_100.cdx

> <SourceTag>
IA_100

> <Gold.Version>
5.2

> <Gold.Id.Protein>
6HGV|6HGV_protein|mol2

> <Gold.Goldscore.Fitness>
67.1446

> <Gold.Goldscore.Internal.Vdw>
-8.6201

> <Gold.Goldscore.Internal.Torsion>
-5.2842

> <Gold.Goldscore.External.Vdw>
53.3080

> <Gold.Goldscore.Internal.HBond>
0.0000

> <Gold.Goldscore.External.HBond>
0.0000

> <Gold.Goldscore.Internal.Correction>
-7.7505

> <Gold.Goldscore.Internal.Vdw.Weighted>
-8.6201

> <Gold.Goldscore.Internal.Torsion.Weighted>
-5.2842

> <Gold.Goldscore.External.Vdw.Weighted>
73.2985

> <Gold.Goldscore.Internal.HBond.Weighted>
0.0000

> <Gold.Goldscore.External.HBond.Weighted>
0.0000

> <Gold.Goldscore.Internal.Correction.Weighted>
-7.7505

> <Gold.Protein.RotatedTorsions>
[ 3781 1176 1175 1172 ] final -170.90 input   60.00 | X-H torsion
[ 3847 1247 1246 1244 ] final  -15.63 input   60.00 | X-H torsion
[ 4507 1931 1930 1928 ] final  115.49 input   60.00 | X-H torsion
[ 3677 1070 1069 1066 ] final  -99.69 input   60.00 | X-H torsion
[ 3525  925  924  922 ] final   33.27 input   59.99 | X-H torsion
[ 4531 1957 1955 1953 ] final  -79.50 input   60.00 | X-H torsion

> <Gold.Protein.ActiveResidues>
 PHE267  PRO268  MET310  ASP335  TRP336  MET339  TYR343  THR360  PRO361  ILE363 
 PRO371  SER374  ILE375  ASN378  PHE381  TYR383  GLN384  PHE387  LEU408  LEU417 
 MET419  LEU428  TYR466  MET469  ASN472  ASP496  VAL498  LEU499  MET503  HIS524 
 TRP525 

> <Gold.Protein.RotatedAtoms>
   -3.1998  -29.6889  -30.8059 H   0  0  0  0  0  0  0  0  0  0  0  0  # atno 3525 bound_to 925 
  -11.7395  -23.7559  -31.4157 H   0  0  0  0  0  0  0  0  0  0  0  0  # atno 3677 bound_to 1070
   -9.2474  -36.4553  -32.9915 H   0  0  0  0  0  0  0  0  0  0  0  0  # atno 3781 bound_to 1176
  -15.8802  -28.5288  -37.0604 H   0  0  0  0  0  0  0  0  0  0  0  0  # atno 3847 bound_to 1247
  -12.4371  -23.9732  -39.2948 H   0  0  0  0  0  0  0  0  0  0  0  0  # atno 4507 bound_to 1931
   -1.6912  -32.3361  -36.9078 H   0  0  0  0  0  0  0  0  0  0  0  0  # atno 4531 bound_to 1957
  -10.5142  -37.4215  -32.6603 LP  0  0  0  0  0  0  0  0  0  0  0  0  # atno 5205 bound_to 1176
  -10.3547  -36.7592  -34.1445 LP  0  0  0  0  0  0  0  0  0  0  0  0  # atno 5206 bound_to 1176
  -15.3129  -27.1907  -37.7923 LP  0  0  0  0  0  0  0  0  0  0  0  0  # atno 5215 bound_to 1247
  -14.3664  -28.5145  -37.6573 LP  0  0  0  0  0  0  0  0  0  0  0  0  # atno 5216 bound_to 1247
  -13.3071  -25.3391  -39.1350 LP  0  0  0  0  0  0  0  0  0  0  0  0  # atno 5217 bound_to 1931
  -13.4550  -24.4262  -40.4809 LP  0  0  0  0  0  0  0  0  0  0  0  0  # atno 5218 bound_to 1931
  -11.3301  -22.3082  -30.7954 LP  0  0  0  0  0  0  0  0  0  0  0  0  # atno 5224 bound_to 1070
  -12.7859  -22.9641  -30.4532 LP  0  0  0  0  0  0  0  0  0  0  0  0  # atno 5225 bound_to 1070

$$$$
IA_128.cdx|SeH_inactivess_minimized|sdf|29|dock7
  -GOLD-   4172119103D 1   1.00000     0.00000

 38 38  0  0  0  0  0  0  0  0  1 V2000
   -5.3152  -31.8667  -35.2210 C   0  0  0  0  0  0  0  0  0  0  0  0
   -6.4587  -33.4088  -33.7541 C   0  0  0  0  0  0  0  0  0  0  0  0
   -4.1900  -31.9187  -34.3984 C   0  0  0  0  0  0  0  0  0  0  0  0
   -5.3334  -33.4607  -32.9316 C   0  0  0  0  0  0  0  0  0  0  0  0
   -6.4497  -32.6117  -34.8988 C   0  0  0  0  0  0  0  0  0  0  0  0
   -4.1990  -32.7158  -33.2537 C   0  0  0  0  0  0  0  0  0  0  0  0
   -8.3047  -31.3466  -35.9191 C   0  0  0  0  0  0  0  0  0  0  0  0
   -8.0725  -33.7618  -36.4349 C   0  0  0  0  0  0  0  0  0  0  0  0
   -7.5852  -30.6686  -33.5974 C   0  0  0  0  0  0  0  0  0  0  0  0
  -11.9435  -29.3929  -34.2616 C   0  0  0  0  0  0  0  0  0  0  0  0
   -9.5901  -26.1750  -34.6799 C   0  0  0  0  0  0  0  0  0  0  0  0
   -8.3973  -28.9607  -35.1848 C   0  0  0  0  0  0  0  0  0  0  0  0
   -9.7549  -28.5478  -34.6140 C   0  0  0  0  0  0  0  0  0  0  0  0
   -7.5991  -32.5588  -35.7394 N   0  0  0  0  0  0  0  0  0  0  0  0
   -8.1041  -30.3480  -34.9336 N   0  0  0  0  0  0  0  0  0  0  0  0
   -9.0815  -31.1679  -36.8652 O   0  0  0  0  0  0  0  0  0  0  0  0
  -10.6696  -29.6284  -34.8464 O   0  0  0  0  0  0  0  0  0  0  0  0
  -10.2037  -27.3347  -35.2253 O   0  0  0  0  0  0  0  0  0  0  0  0
   -2.8102  -32.7799  -32.2388 Cl  0  0  0  0  0  0  0  0  0  0  0  0
   -5.2974  -31.2421  -36.1104 H   0  0  0  0  0  0  0  0  0  0  0  0
   -7.3373  -33.9933  -33.4937 H   0  0  0  0  0  0  0  0  0  0  0  0
   -3.3128  -31.3332  -34.6616 H   0  0  0  0  0  0  0  0  0  0  0  0
   -5.3544  -34.0859  -32.0427 H   0  0  0  0  0  0  0  0  0  0  0  0
   -7.7615  -33.7369  -37.4825 H   0  0  0  0  0  0  0  0  0  0  0  0
   -9.1636  -33.8178  -36.3929 H   0  0  0  0  0  0  0  0  0  0  0  0
   -7.6572  -34.6578  -35.9656 H   0  0  0  0  0  0  0  0  0  0  0  0
   -7.9235  -29.9223  -32.8739 H   0  0  0  0  0  0  0  0  0  0  0  0
   -6.4919  -30.6776  -33.6085 H   0  0  0  0  0  0  0  0  0  0  0  0
   -7.9405  -31.6527  -33.2800 H   0  0  0  0  0  0  0  0  0  0  0  0
  -12.5949  -30.2503  -34.4478 H   0  0  0  0  0  0  0  0  0  0  0  0
  -12.3814  -28.4887  -34.6921 H   0  0  0  0  0  0  0  0  0  0  0  0
  -11.8208  -29.2585  -33.1843 H   0  0  0  0  0  0  0  0  0  0  0  0
   -9.8573  -26.0826  -33.6243 H   0  0  0  0  0  0  0  0  0  0  0  0
   -9.9244  -25.2918  -35.2299 H   0  0  0  0  0  0  0  0  0  0  0  0
   -8.5056  -26.2700  -34.7718 H   0  0  0  0  0  0  0  0  0  0  0  0
   -8.3586  -28.8221  -36.2688 H   0  0  0  0  0  0  0  0  0  0  0  0
   -7.5919  -28.3798  -34.7242 H   0  0  0  0  0  0  0  0  0  0  0  0
   -9.6552  -28.4151  -33.5284 H   0  0  0  0  0  0  0  0  0  0  0  0
  1  3  1  0  0  0  0
  1  5  2  0  0  0  0
  2  4  2  0  0  0  0
  2  5  1  0  0  0  0
  3  6  2  0  0  0  0
  4  6  1  0  0  0  0
  5 14  1  0  0  0  0
  6 19  1  0  0  0  0
  7 14  1  0  0  0  0
  7 15  1  0  0  0  0
  7 16  2  0  0  0  0
  8 14  1  0  0  0  0
  9 15  1  0  0  0  0
 10 17  1  0  0  0  0
 11 18  1  0  0  0  0
 12 13  1  0  0  0  0
 12 15  1  0  0  0  0
 13 17  1  0  0  0  0
 13 18  1  0  0  0  0
  1 20  1  0  0  0  0
  2 21  1  0  0  0  0
  3 22  1  0  0  0  0
  4 23  1  0  0  0  0
  8 24  1  0  0  0  0
  8 25  1  0  0  0  0
  8 26  1  0  0  0  0
  9 27  1  0  0  0  0
  9 28  1  0  0  0  0
  9 29  1  0  0  0  0
 10 30  1  0  0  0  0
 10 31  1  0  0  0  0
 10 32  1  0  0  0  0
 11 33  1  0  0  0  0
 11 34  1  0  0  0  0
 11 35  1  0  0  0  0
 12 36  1  0  0  0  0
 12 37  1  0  0  0  0
 13 38  1  0  0  0  0
M  END
> <Name>
IA_128.cdx

> <SourceTag>
IA_128

> <Gold.Version>
5.2

> <Gold.Id.Protein>
6HGV|6HGV_protein|mol2

> <Gold.Goldscore.Fitness>
49.8691

> <Gold.Goldscore.Internal.Vdw>
-10.0478

> <Gold.Goldscore.Internal.Torsion>
-14.4103

> <Gold.Goldscore.External.Vdw>
34.9248

> <Gold.Goldscore.Internal.HBond>
0.0000

> <Gold.Goldscore.External.HBond>
1.9375

> <Gold.Goldscore.Internal.Correction>
-24.3680

> <Gold.Goldscore.Hbonds>
donor molecule, donor type, donor heavy atom, donor atom, acceptor molecule, acceptor atom, score
      P1  H  1256  3854       L1    17  0.97

> <Gold.Goldscore.Internal.Vdw.Weighted>
-10.0478

> <Gold.Goldscore.Internal.Torsion.Weighted>
-14.4103

> <Gold.Goldscore.External.Vdw.Weighted>
48.0217

> <Gold.Goldscore.Internal.HBond.Weighted>
0.0000

> <Gold.Goldscore.External.HBond.Weighted>
1.9375

> <Gold.Goldscore.Internal.Correction.Weighted>
-24.3680

> <Gold.Protein.RotatedTorsions>
[ 3781 1176 1175 1172 ] final -144.71 input   60.00 | X-H torsion
[ 3847 1247 1246 1244 ] final   56.17 input   60.00 | X-H torsion
[ 4507 1931 1930 1928 ] final   41.96 input   60.00 | X-H torsion
[ 3677 1070 1069 1066 ] final -115.61 input   60.00 | X-H torsion
[ 3525  925  924  922 ] final   35.46 input   59.99 | X-H torsion
[ 4531 1957 1955 1953 ] final   62.29 input   60.00 | X-H torsion

> <Gold.Protein.ActiveResidues>
 PHE267  PRO268  MET310  ASP335  TRP336  MET339  TYR343  THR360  PRO361  ILE363 
 PRO371  SER374  ILE375  ASN378  PHE381  TYR383  GLN384  PHE387  LEU408  LEU417 
 MET419  LEU428  TYR466  MET469  ASN472  ASP496  VAL498  LEU499  MET503  HIS524 
 TRP525 

> <Gold.Protein.RotatedAtoms>
   -3.1688  -29.7013  -30.8183 H   0  0  0  0  0  0  0  0  0  0  0  0  # atno 3525 bound_to 925 
  -11.5186  -23.6242  -31.4492 H   0  0  0  0  0  0  0  0  0  0  0  0  # atno 3677 bound_to 1070
   -9.2880  -36.3312  -33.3952 H   0  0  0  0  0  0  0  0  0  0  0  0  # atno 3781 bound_to 1176
  -14.8892  -28.9409  -37.2917 H   0  0  0  0  0  0  0  0  0  0  0  0  # atno 3847 bound_to 1247
  -12.8048  -24.9090  -38.7999 H   0  0  0  0  0  0  0  0  0  0  0  0  # atno 4507 bound_to 1931
   -3.0448  -33.4506  -36.6697 H   0  0  0  0  0  0  0  0  0  0  0  0  # atno 4531 bound_to 1957
  -10.1819  -37.2869  -32.4279 LP  0  0  0  0  0  0  0  0  0  0  0  0  # atno 5205 bound_to 1176
  -10.6461  -37.0188  -33.9704 LP  0  0  0  0  0  0  0  0  0  0  0  0  # atno 5206 bound_to 1176
  -16.0594  -27.8105  -37.2621 LP  0  0  0  0  0  0  0  0  0  0  0  0  # atno 5215 bound_to 1247
  -14.6179  -27.4796  -37.9545 LP  0  0  0  0  0  0  0  0  0  0  0  0  # atno 5216 bound_to 1247
  -13.6990  -25.0474  -40.1523 LP  0  0  0  0  0  0  0  0  0  0  0  0  # atno 5217 bound_to 1931
  -12.6928  -23.7754  -39.9620 LP  0  0  0  0  0  0  0  0  0  0  0  0  # atno 5218 bound_to 1931
  -11.5198  -22.2091  -30.6457 LP  0  0  0  0  0  0  0  0  0  0  0  0  # atno 5224 bound_to 1070
  -12.8187  -23.1959  -30.5691 LP  0  0  0  0  0  0  0  0  0  0  0  0  # atno 5225 bound_to 1070

$$$$
IA_101.cdx|SeH_inactivess_minimized|sdf|3|dock9
  -GOLD-   4172118233D 1   1.00000     0.00000

 56 55  0  0  0  0  0  0  0  0  1 V2000
  -20.6667  -23.2090  -38.2442 C   0  0  0  0  0  0  0  0  0  0  0  0
   -3.5661  -32.3230  -34.1971 C   0  0  0  0  0  0  0  0  0  0  0  0
   -4.7664  -33.0073  -34.8321 C   0  0  0  0  0  0  0  0  0  0  0  0
   -5.7031  -32.0423  -35.5625 C   0  0  0  0  0  0  0  0  0  0  0  0
   -6.3868  -30.9890  -34.6840 C   0  0  0  0  0  0  0  0  0  0  0  0
   -7.3249  -30.0217  -35.4124 C   0  0  0  0  0  0  0  0  0  0  0  0
   -7.8466  -28.8926  -34.5202 C   0  0  0  0  0  0  0  0  0  0  0  0
   -8.9849  -28.1308  -35.2036 C   0  0  0  0  0  0  0  0  0  0  0  0
   -9.2803  -26.7707  -34.5637 C   0  0  0  0  0  0  0  0  0  0  0  0
  -10.2597  -25.8715  -35.3246 C   0  0  0  0  0  0  0  0  0  0  0  0
  -11.7169  -26.3244  -35.2136 C   0  0  0  0  0  0  0  0  0  0  0  0
  -12.6233  -25.5034  -36.1335 C   0  0  0  0  0  0  0  0  0  0  0  0
  -14.0819  -25.9545  -36.0244 C   0  0  0  0  0  0  0  0  0  0  0  0
  -14.9585  -25.2480  -37.0607 C   0  0  0  0  0  0  0  0  0  0  0  0
  -16.4504  -25.2669  -36.7133 C   0  0  0  0  0  0  0  0  0  0  0  0
  -17.3350  -24.6410  -37.7967 C   0  0  0  0  0  0  0  0  0  0  0  0
  -18.8162  -24.6703  -37.4305 C   0  0  0  0  0  0  0  0  0  0  0  0
  -21.3194  -22.8533  -39.4109 N   0  0  0  0  0  0  0  0  0  0  0  0
  -19.6500  -24.1336  -38.4701 N   0  0  0  0  0  0  0  0  0  0  0  0
  -20.9683  -22.7480  -37.1447 O   0  0  0  0  0  0  0  0  0  0  0  0
   -3.0255  -31.7173  -34.9312 H   0  0  0  0  0  0  0  0  0  0  0  0
   -2.8733  -33.0721  -33.8003 H   0  0  0  0  0  0  0  0  0  0  0  0
   -3.8652  -31.6761  -33.3673 H   0  0  0  0  0  0  0  0  0  0  0  0
   -5.3149  -33.5684  -34.0676 H   0  0  0  0  0  0  0  0  0  0  0  0
   -4.4023  -33.7471  -35.5554 H   0  0  0  0  0  0  0  0  0  0  0  0
   -6.4660  -32.6271  -36.0899 H   0  0  0  0  0  0  0  0  0  0  0  0
   -5.1346  -31.5205  -36.3430 H   0  0  0  0  0  0  0  0  0  0  0  0
   -5.6072  -30.4086  -34.1746 H   0  0  0  0  0  0  0  0  0  0  0  0
   -6.9526  -31.4916  -33.8904 H   0  0  0  0  0  0  0  0  0  0  0  0
   -6.8224  -29.5998  -36.2903 H   0  0  0  0  0  0  0  0  0  0  0  0
   -8.1765  -30.5990  -35.7942 H   0  0  0  0  0  0  0  0  0  0  0  0
   -7.0297  -28.2009  -34.2927 H   0  0  0  0  0  0  0  0  0  0  0  0
   -8.2005  -29.3082  -33.5692 H   0  0  0  0  0  0  0  0  0  0  0  0
   -8.7595  -28.0030  -36.2686 H   0  0  0  0  0  0  0  0  0  0  0  0
   -9.9006  -28.7336  -35.1548 H   0  0  0  0  0  0  0  0  0  0  0  0
   -8.3364  -26.2254  -34.4396 H   0  0  0  0  0  0  0  0  0  0  0  0
   -9.6704  -26.9426  -33.5527 H   0  0  0  0  0  0  0  0  0  0  0  0
   -9.9691  -25.8084  -36.3795 H   0  0  0  0  0  0  0  0  0  0  0  0
  -10.1686  -24.8550  -34.9212 H   0  0  0  0  0  0  0  0  0  0  0  0
  -11.8027  -27.3834  -35.4815 H   0  0  0  0  0  0  0  0  0  0  0  0
  -12.0561  -26.2215  -34.1758 H   0  0  0  0  0  0  0  0  0  0  0  0
  -12.2838  -25.6073  -37.1714 H   0  0  0  0  0  0  0  0  0  0  0  0
  -12.5466  -24.4409  -35.8724 H   0  0  0  0  0  0  0  0  0  0  0  0
  -14.4576  -25.7399  -35.0167 H   0  0  0  0  0  0  0  0  0  0  0  0
  -14.1317  -27.0396  -36.1664 H   0  0  0  0  0  0  0  0  0  0  0  0
  -14.6413  -24.2009  -37.1421 H   0  0  0  0  0  0  0  0  0  0  0  0
  -14.8051  -25.7014  -38.0474 H   0  0  0  0  0  0  0  0  0  0  0  0
  -16.5828  -24.7188  -35.7728 H   0  0  0  0  0  0  0  0  0  0  0  0
  -16.7707  -26.2987  -36.5247 H   0  0  0  0  0  0  0  0  0  0  0  0
  -17.2086  -25.1901  -38.7362 H   0  0  0  0  0  0  0  0  0  0  0  0
  -17.0184  -23.6066  -37.9786 H   0  0  0  0  0  0  0  0  0  0  0  0
  -19.1394  -25.7029  -37.2646 H   0  0  0  0  0  0  0  0  0  0  0  0
  -19.0109  -24.1013  -36.5159 H   0  0  0  0  0  0  0  0  0  0  0  0
  -22.0842  -22.1871  -39.4118 H   0  0  0  0  0  0  0  0  0  0  0  0
  -21.0497  -23.2497  -40.3051 H   0  0  0  0  0  0  0  0  0  0  0  0
  -19.4884  -24.4468  -39.4262 H   0  0  0  0  0  0  0  0  0  0  0  0
  1 18  1  0  0  0  0
  1 19  1  0  0  0  0
  1 20  2  0  0  0  0
  2  3  1  0  0  0  0
  3  4  1  0  0  0  0
  4  5  1  0  0  0  0
  5  6  1  0  0  0  0
  6  7  1  0  0  0  0
  7  8  1  0  0  0  0
  8  9  1  0  0  0  0
  9 10  1  0  0  0  0
 10 11  1  0  0  0  0
 11 12  1  0  0  0  0
 12 13  1  0  0  0  0
 13 14  1  0  0  0  0
 14 15  1  0  0  0  0
 15 16  1  0  0  0  0
 16 17  1  0  0  0  0
 17 19  1  0  0  0  0
  2 21  1  0  0  0  0
  2 22  1  0  0  0  0
  2 23  1  0  0  0  0
  3 24  1  0  0  0  0
  3 25  1  0  0  0  0
  4 26  1  0  0  0  0
  4 27  1  0  0  0  0
  5 28  1  0  0  0  0
  5 29  1  0  0  0  0
  6 30  1  0  0  0  0
  6 31  1  0  0  0  0
  7 32  1  0  0  0  0
  7 33  1  0  0  0  0
  8 34  1  0  0  0  0
  8 35  1  0  0  0  0
  9 36  1  0  0  0  0
  9 37  1  0  0  0  0
 10 38  1  0  0  0  0
 10 39  1  0  0  0  0
 11 40  1  0  0  0  0
 11 41  1  0  0  0  0
 12 42  1  0  0  0  0
 12 43  1  0  0  0  0
 13 44  1  0  0  0  0
 13 45  1  0  0  0  0
 14 46  1  0  0  0  0
 14 47  1  0  0  0  0
 15 48  1  0  0  0  0
 15 49  1  0  0  0  0
 16 50  1  0  0  0  0
 16 51  1  0  0  0  0
 17 52  1  0  0  0  0
 17 53  1  0  0  0  0
 18 54  1  0  0  0  0
 18 55  1  0  0  0  0
 19 56  1  0  0  0  0
M  END
> <Name>
IA_101.cdx

> <SourceTag>
IA_101

> <Gold.Version>
5.2

> <Gold.Id.Protein>
6HGV|6HGV_protein|mol2

> <Gold.Goldscore.Fitness>
64.6245

> <Gold.Goldscore.Internal.Vdw>
-6.1739

> <Gold.Goldscore.Internal.Torsion>
-3.3131

> <Gold.Goldscore.External.Vdw>
49.5250

> <Gold.Goldscore.Internal.HBond>
0.0000

> <Gold.Goldscore.External.HBond>
0.0000

> <Gold.Goldscore.Internal.Correction>
-6.0147

> <Gold.Goldscore.Internal.Vdw.Weighted>
-6.1739

> <Gold.Goldscore.Internal.Torsion.Weighted>
-3.3131

> <Gold.Goldscore.External.Vdw.Weighted>
68.0969

> <Gold.Goldscore.Internal.HBond.Weighted>
0.0000

> <Gold.Goldscore.External.HBond.Weighted>
0.0000

> <Gold.Goldscore.Internal.Correction.Weighted>
-6.0147

> <Gold.Protein.RotatedTorsions>
[ 3781 1176 1175 1172 ] final   39.25 input   60.00 | X-H torsion
[ 3847 1247 1246 1244 ] final   -4.13 input   60.00 | X-H torsion
[ 4507 1931 1930 1928 ] final   91.83 input   60.00 | X-H torsion
[ 3677 1070 1069 1066 ] final -101.85 input   60.00 | X-H torsion
[ 3525  925  924  922 ] final   66.50 input   59.99 | X-H torsion
[ 4531 1957 1955 1953 ] final  120.65 input   60.00 | X-H torsion

> <Gold.Protein.ActiveResidues>
 PHE267  PRO268  MET310  ASP335  TRP336  MET339  TYR343  THR360  PRO361  ILE363 
 PRO371  SER374  ILE375  ASN378  PHE381  TYR383  GLN384  PHE387  LEU408  LEU417 
 MET419  LEU428  TYR466  MET469  ASN472  ASP496  VAL498  LEU499  MET503  HIS524 
 TRP525 

> <Gold.Protein.RotatedAtoms>
   -2.7093  -29.8985  -30.8518 H   0  0  0  0  0  0  0  0  0  0  0  0  # atno 3525 bound_to 925 
  -11.7083  -23.7412  -31.4227 H   0  0  0  0  0  0  0  0  0  0  0  0  # atno 3677 bound_to 1070
  -10.7640  -37.4360  -33.0746 H   0  0  0  0  0  0  0  0  0  0  0  0  # atno 3781 bound_to 1176
  -15.7582  -28.6711  -37.0539 H   0  0  0  0  0  0  0  0  0  0  0  0  # atno 3847 bound_to 1247
  -12.4558  -24.2340  -39.0140 H   0  0  0  0  0  0  0  0  0  0  0  0  # atno 4507 bound_to 1931
   -2.3684  -34.0480  -36.8086 H   0  0  0  0  0  0  0  0  0  0  0  0  # atno 4531 bound_to 1957
   -9.9474  -36.4958  -34.1221 LP  0  0  0  0  0  0  0  0  0  0  0  0  # atno 5205 bound_to 1176
   -9.3942  -36.6973  -32.5990 LP  0  0  0  0  0  0  0  0  0  0  0  0  # atno 5206 bound_to 1176
  -15.4851  -27.2104  -37.7171 LP  0  0  0  0  0  0  0  0  0  0  0  0  # atno 5215 bound_to 1247
  -14.3172  -28.3515  -37.7390 LP  0  0  0  0  0  0  0  0  0  0  0  0  # atno 5216 bound_to 1247
  -13.5232  -25.3813  -39.4526 LP  0  0  0  0  0  0  0  0  0  0  0  0  # atno 5217 bound_to 1931
  -13.2201  -24.1212  -40.4461 LP  0  0  0  0  0  0  0  0  0  0  0  0  # atno 5218 bound_to 1931
  -11.3533  -22.2914  -30.7745 LP  0  0  0  0  0  0  0  0  0  0  0  0  # atno 5224 bound_to 1070
  -12.7942  -22.9957  -30.4671 LP  0  0  0  0  0  0  0  0  0  0  0  0  # atno 5225 bound_to 1070

$$$$
IA_159.cdx|SeH_inactivess_minimized|sdf|60|dock6
  -GOLD-   4172119553D 1   1.00000     0.00000

 50 52  0  0  0  0  0  0  0  0  1 V2000
   -9.1279  -31.0234  -36.0598 C   0  0  0  0  0  0  0  0  0  0  0  0
  -10.6194  -25.6572  -33.5099 C   0  0  0  0  0  0  0  0  0  0  0  0
  -11.5294  -32.5994  -31.9220 C   0  0  0  0  0  0  0  0  0  0  0  0
   -4.9901  -30.1155  -33.6480 C   0  0  0  0  0  0  0  0  0  0  0  0
   -9.6405  -25.8997  -34.4736 C   0  0  0  0  0  0  0  0  0  0  0  0
  -11.1657  -26.7186  -32.7881 C   0  0  0  0  0  0  0  0  0  0  0  0
  -10.5662  -31.8014  -31.3049 C   0  0  0  0  0  0  0  0  0  0  0  0
  -11.7677  -32.4728  -33.2905 C   0  0  0  0  0  0  0  0  0  0  0  0
   -5.4861  -29.7930  -34.9111 C   0  0  0  0  0  0  0  0  0  0  0  0
   -5.8689  -30.3108  -32.5826 C   0  0  0  0  0  0  0  0  0  0  0  0
   -9.2078  -27.2036  -34.7154 C   0  0  0  0  0  0  0  0  0  0  0  0
  -10.7329  -28.0223  -33.0300 C   0  0  0  0  0  0  0  0  0  0  0  0
   -9.8413  -30.8764  -32.0563 C   0  0  0  0  0  0  0  0  0  0  0  0
  -11.0428  -31.5479  -34.0419 C   0  0  0  0  0  0  0  0  0  0  0  0
   -6.8610  -29.6657  -35.1089 C   0  0  0  0  0  0  0  0  0  0  0  0
   -7.2438  -30.1835  -32.7802 C   0  0  0  0  0  0  0  0  0  0  0  0
   -9.7540  -28.2649  -33.9937 C   0  0  0  0  0  0  0  0  0  0  0  0
  -10.0796  -30.7497  -33.4249 C   0  0  0  0  0  0  0  0  0  0  0  0
   -7.7399  -29.8609  -34.0434 C   0  0  0  0  0  0  0  0  0  0  0  0
   -8.7669  -32.7479  -34.1348 C   0  0  0  0  0  0  0  0  0  0  0  0
   -7.9823  -34.2972  -35.9512 C   0  0  0  0  0  0  0  0  0  0  0  0
   -6.5898  -32.3037  -35.3167 C   0  0  0  0  0  0  0  0  0  0  0  0
   -9.2722  -29.7188  -34.2630 C   0  0  0  0  0  0  0  0  0  0  0  0
   -8.0098  -32.8509  -35.4583 C   0  0  0  0  0  0  0  0  0  0  0  0
   -9.5450  -29.9949  -35.6755 N   0  0  0  0  0  0  0  0  0  0  0  0
   -8.7195  -32.0460  -36.4625 N   0  0  0  0  0  0  0  0  0  0  0  0
  -10.9552  -24.6418  -33.3208 H   0  0  0  0  0  0  0  0  0  0  0  0
  -12.0929  -33.3206  -31.3369 H   0  0  0  0  0  0  0  0  0  0  0  0
   -3.9196  -30.2160  -33.4945 H   0  0  0  0  0  0  0  0  0  0  0  0
   -9.2143  -25.0734  -35.0349 H   0  0  0  0  0  0  0  0  0  0  0  0
  -11.9270  -26.5300  -32.0371 H   0  0  0  0  0  0  0  0  0  0  0  0
  -10.3798  -31.9006  -30.2396 H   0  0  0  0  0  0  0  0  0  0  0  0
  -12.5168  -33.0948  -33.7714 H   0  0  0  0  0  0  0  0  0  0  0  0
   -4.8021  -29.6419  -35.7411 H   0  0  0  0  0  0  0  0  0  0  0  0
   -5.4832  -30.5631  -31.5992 H   0  0  0  0  0  0  0  0  0  0  0  0
   -8.4447  -27.3830  -35.4683 H   0  0  0  0  0  0  0  0  0  0  0  0
  -11.1642  -28.8430  -32.4629 H   0  0  0  0  0  0  0  0  0  0  0  0
   -9.0929  -30.2586  -31.5671 H   0  0  0  0  0  0  0  0  0  0  0  0
  -11.2353  -31.4560  -35.1076 H   0  0  0  0  0  0  0  0  0  0  0  0
   -7.2385  -29.4138  -36.0964 H   0  0  0  0  0  0  0  0  0  0  0  0
   -7.9210  -30.3373  -31.9442 H   0  0  0  0  0  0  0  0  0  0  0  0
   -8.2185  -33.2446  -33.3263 H   0  0  0  0  0  0  0  0  0  0  0  0
   -8.9220  -31.7025  -33.8461 H   0  0  0  0  0  0  0  0  0  0  0  0
   -9.7493  -33.2291  -34.2023 H   0  0  0  0  0  0  0  0  0  0  0  0
   -8.9936  -34.7168  -36.0022 H   0  0  0  0  0  0  0  0  0  0  0  0
   -7.4015  -34.9346  -35.2745 H   0  0  0  0  0  0  0  0  0  0  0  0
   -7.5359  -34.3688  -36.9493 H   0  0  0  0  0  0  0  0  0  0  0  0
   -6.3655  -31.5765  -36.1054 H   0  0  0  0  0  0  0  0  0  0  0  0
   -6.4499  -31.8076  -34.3499 H   0  0  0  0  0  0  0  0  0  0  0  0
   -5.8475  -33.1061  -35.3960 H   0  0  0  0  0  0  0  0  0  0  0  0
  1 25  2  0  0  0  0
  1 26  2  0  0  0  0
  2  5  2  0  0  0  0
  2  6  1  0  0  0  0
  3  7  2  0  0  0  0
  3  8  1  0  0  0  0
  4  9  2  0  0  0  0
  4 10  1  0  0  0  0
  5 11  1  0  0  0  0
  6 12  2  0  0  0  0
  7 13  1  0  0  0  0
  8 14  2  0  0  0  0
  9 15  1  0  0  0  0
 10 16  2  0  0  0  0
 11 17  2  0  0  0  0
 12 17  1  0  0  0  0
 13 18  2  0  0  0  0
 14 18  1  0  0  0  0
 15 19  2  0  0  0  0
 16 19  1  0  0  0  0
 17 23  1  0  0  0  0
 18 23  1  0  0  0  0
 19 23  1  0  0  0  0
 20 24  1  0  0  0  0
 21 24  1  0  0  0  0
 22 24  1  0  0  0  0
 23 25  1  0  0  0  0
 24 26  1  0  0  0  0
  2 27  1  0  0  0  0
  3 28  1  0  0  0  0
  4 29  1  0  0  0  0
  5 30  1  0  0  0  0
  6 31  1  0  0  0  0
  7 32  1  0  0  0  0
  8 33  1  0  0  0  0
  9 34  1  0  0  0  0
 10 35  1  0  0  0  0
 11 36  1  0  0  0  0
 12 37  1  0  0  0  0
 13 38  1  0  0  0  0
 14 39  1  0  0  0  0
 15 40  1  0  0  0  0
 16 41  1  0  0  0  0
 20 42  1  0  0  0  0
 20 43  1  0  0  0  0
 20 44  1  0  0  0  0
 21 45  1  0  0  0  0
 21 46  1  0  0  0  0
 21 47  1  0  0  0  0
 22 48  1  0  0  0  0
 22 49  1  0  0  0  0
 22 50  1  0  0  0  0
M  END
> <Name>
IA_159.cdx

> <SourceTag>
IA_159

> <Gold.Version>
5.2

> <Gold.Id.Protein>
6HGV|6HGV_protein|mol2

> <Gold.Goldscore.Fitness>
56.2618

> <Gold.Goldscore.Internal.Vdw>
-151.4169

> <Gold.Goldscore.Internal.Torsion>
-5.9597

> <Gold.Goldscore.External.Vdw>
41.4977

> <Gold.Goldscore.Internal.HBond>
0.0000

> <Gold.Goldscore.External.HBond>
0.1216

> <Gold.Goldscore.Internal.Correction>
-156.4575

> <Gold.Goldscore.Hbonds>
donor molecule, donor type, donor heavy atom, donor atom, acceptor molecule, acceptor atom, score
      P1  H  1256  3854       L1    25  0.06

> <Gold.Goldscore.Internal.Vdw.Weighted>
-151.4169

> <Gold.Goldscore.Internal.Torsion.Weighted>
-5.9597

> <Gold.Goldscore.External.Vdw.Weighted>
57.0593

> <Gold.Goldscore.Internal.HBond.Weighted>
0.0000

> <Gold.Goldscore.External.HBond.Weighted>
0.1216

> <Gold.Goldscore.Internal.Correction.Weighted>
-156.4575

> <Gold.Protein.RotatedTorsions>
[ 3781 1176 1175 1172 ] final  -95.21 input   60.00 | X-H torsion
[ 3847 1247 1246 1244 ] final  165.69 input   60.00 | X-H torsion
[ 4507 1931 1930 1928 ] final  -17.11 input   60.00 | X-H torsion
[ 3677 1070 1069 1066 ] final  -76.61 input   60.00 | X-H torsion
[ 3525  925  924  922 ] final  -13.83 input   59.99 | X-H torsion
[ 4531 1957 1955 1953 ] final   40.37 input   60.00 | X-H torsion

> <Gold.Protein.ActiveResidues>
 PHE267  PRO268  MET310  ASP335  TRP336  MET339  TYR343  THR360  PRO361  ILE363 
 PRO371  SER374  ILE375  ASN378  PHE381  TYR383  GLN384  PHE387  LEU408  LEU417 
 MET419  LEU428  TYR466  MET469  ASN472  ASP496  VAL498  LEU499  MET503  HIS524 
 TRP525 

> <Gold.Protein.RotatedAtoms>
   -3.7017  -29.5184  -30.2778 H   0  0  0  0  0  0  0  0  0  0  0  0  # atno 3525 bound_to 925 
  -12.0836  -23.8438  -31.2965 H   0  0  0  0  0  0  0  0  0  0  0  0  # atno 3677 bound_to 1070
   -9.7526  -36.4064  -34.0221 H   0  0  0  0  0  0  0  0  0  0  0  0  # atno 3781 bound_to 1176
  -14.5098  -27.6131  -37.9486 H   0  0  0  0  0  0  0  0  0  0  0  0  # atno 3847 bound_to 1247
  -13.4255  -25.3741  -39.3002 H   0  0  0  0  0  0  0  0  0  0  0  0  # atno 4507 bound_to 1931
   -3.0983  -33.0991  -36.6535 H   0  0  0  0  0  0  0  0  0  0  0  0  # atno 4531 bound_to 1957
   -9.5332  -36.8388  -32.4687 LP  0  0  0  0  0  0  0  0  0  0  0  0  # atno 5205 bound_to 1176
  -10.8269  -37.3912  -33.2981 LP  0  0  0  0  0  0  0  0  0  0  0  0  # atno 5206 bound_to 1176
  -15.0428  -28.9664  -37.2190 LP  0  0  0  0  0  0  0  0  0  0  0  0  # atno 5215 bound_to 1247
  -16.0167  -27.6609  -37.3361 LP  0  0  0  0  0  0  0  0  0  0  0  0  # atno 5216 bound_to 1247
  -13.3357  -24.2571  -40.4802 LP  0  0  0  0  0  0  0  0  0  0  0  0  # atno 5217 bound_to 1931
  -12.4310  -24.0973  -39.1302 LP  0  0  0  0  0  0  0  0  0  0  0  0  # atno 5218 bound_to 1931
  -11.1429  -22.5446  -31.0221 LP  0  0  0  0  0  0  0  0  0  0  0  0  # atno 5224 bound_to 1070
  -12.6266  -22.6393  -30.3466 LP  0  0  0  0  0  0  0  0  0  0  0  0  # atno 5225 bound_to 1070

$$$$
IA_94.cdx|SeH_inactivess_minimized|sdf|173|dock8
  -GOLD-   41821 8353D 1   1.00000     0.00000

 53 52  0  0  0  0  0  0  0  0  1 V2000
   -6.8146  -30.6426  -35.3950 C   0  0  0  0  0  0  0  0  0  0  0  0
  -21.5022  -23.5943  -38.3459 C   0  0  0  0  0  0  0  0  0  0  0  0
   -4.4224  -32.5911  -34.3296 C   0  0  0  0  0  0  0  0  0  0  0  0
  -20.0224  -23.7481  -38.6613 C   0  0  0  0  0  0  0  0  0  0  0  0
  -19.2288  -24.4317  -37.5458 C   0  0  0  0  0  0  0  0  0  0  0  0
  -17.7216  -24.4741  -37.8129 C   0  0  0  0  0  0  0  0  0  0  0  0
  -16.9803  -25.1832  -36.6763 C   0  0  0  0  0  0  0  0  0  0  0  0
  -15.4654  -25.2560  -36.8892 C   0  0  0  0  0  0  0  0  0  0  0  0
  -14.6883  -25.6069  -35.6175 C   0  0  0  0  0  0  0  0  0  0  0  0
  -13.1841  -25.6776  -35.8930 C   0  0  0  0  0  0  0  0  0  0  0  0
  -12.3260  -25.4585  -34.6432 C   0  0  0  0  0  0  0  0  0  0  0  0
  -10.8388  -25.7979  -34.7892 C   0  0  0  0  0  0  0  0  0  0  0  0
  -10.5171  -27.2703  -35.0639 C   0  0  0  0  0  0  0  0  0  0  0  0
   -9.0168  -27.5785  -35.0353 C   0  0  0  0  0  0  0  0  0  0  0  0
   -4.6351  -31.8403  -35.5999 C   0  0  0  0  0  0  0  0  0  0  0  0
   -8.7298  -29.0753  -35.1132 C   0  0  0  0  0  0  0  0  0  0  0  0
   -5.4226  -30.6499  -35.3761 N   0  0  0  0  0  0  0  0  0  0  0  0
   -7.3226  -29.3653  -35.1499 N   0  0  0  0  0  0  0  0  0  0  0  0
   -7.5133  -31.6342  -35.6006 O   0  0  0  0  0  0  0  0  0  0  0  0
  -22.0346  -23.1248  -39.1791 H   0  0  0  0  0  0  0  0  0  0  0  0
  -21.6339  -22.9629  -37.4613 H   0  0  0  0  0  0  0  0  0  0  0  0
  -21.9706  -24.5602  -38.1352 H   0  0  0  0  0  0  0  0  0  0  0  0
   -3.8623  -31.9869  -33.6077 H   0  0  0  0  0  0  0  0  0  0  0  0
   -5.3793  -32.8879  -33.8867 H   0  0  0  0  0  0  0  0  0  0  0  0
   -3.8444  -33.5015  -34.5287 H   0  0  0  0  0  0  0  0  0  0  0  0
  -19.9219  -24.3460  -39.5752 H   0  0  0  0  0  0  0  0  0  0  0  0
  -19.5913  -22.7639  -38.8778 H   0  0  0  0  0  0  0  0  0  0  0  0
  -19.6024  -25.4575  -37.4383 H   0  0  0  0  0  0  0  0  0  0  0  0
  -19.4222  -23.9235  -36.5932 H   0  0  0  0  0  0  0  0  0  0  0  0
  -17.3301  -23.4561  -37.9167 H   0  0  0  0  0  0  0  0  0  0  0  0
  -17.5408  -24.9937  -38.7603 H   0  0  0  0  0  0  0  0  0  0  0  0
  -17.3818  -26.1957  -36.5468 H   0  0  0  0  0  0  0  0  0  0  0  0
  -17.1677  -24.6471  -35.7376 H   0  0  0  0  0  0  0  0  0  0  0  0
  -15.1255  -24.2801  -37.2580 H   0  0  0  0  0  0  0  0  0  0  0  0
  -15.2395  -25.9866  -37.6754 H   0  0  0  0  0  0  0  0  0  0  0  0
  -14.8950  -24.8515  -34.8514 H   0  0  0  0  0  0  0  0  0  0  0  0
  -15.0257  -26.5728  -35.2256 H   0  0  0  0  0  0  0  0  0  0  0  0
  -12.9419  -26.6672  -36.3008 H   0  0  0  0  0  0  0  0  0  0  0  0
  -12.9123  -24.9520  -36.6679 H   0  0  0  0  0  0  0  0  0  0  0  0
  -12.7526  -26.0441  -33.8202 H   0  0  0  0  0  0  0  0  0  0  0  0
  -12.4095  -24.4080  -34.3367 H   0  0  0  0  0  0  0  0  0  0  0  0
  -10.3245  -25.4890  -33.8704 H   0  0  0  0  0  0  0  0  0  0  0  0
  -10.4054  -25.1905  -35.5925 H   0  0  0  0  0  0  0  0  0  0  0  0
  -11.0487  -27.9073  -34.3484 H   0  0  0  0  0  0  0  0  0  0  0  0
  -10.9143  -27.5241  -36.0548 H   0  0  0  0  0  0  0  0  0  0  0  0
   -8.5657  -27.1711  -34.1234 H   0  0  0  0  0  0  0  0  0  0  0  0
   -8.5321  -27.0850  -35.8862 H   0  0  0  0  0  0  0  0  0  0  0  0
   -5.1671  -32.4606  -36.3274 H   0  0  0  0  0  0  0  0  0  0  0  0
   -3.6792  -31.5310  -36.0327 H   0  0  0  0  0  0  0  0  0  0  0  0
   -9.1656  -29.4940  -36.0257 H   0  0  0  0  0  0  0  0  0  0  0  0
   -9.1584  -29.6041  -34.2559 H   0  0  0  0  0  0  0  0  0  0  0  0
   -4.9373  -29.7765  -35.1962 H   0  0  0  0  0  0  0  0  0  0  0  0
   -6.6640  -28.6162  -34.9447 H   0  0  0  0  0  0  0  0  0  0  0  0
  1 17  1  0  0  0  0
  1 18  1  0  0  0  0
  1 19  2  0  0  0  0
  2  4  1  0  0  0  0
  3 15  1  0  0  0  0
  4  5  1  0  0  0  0
  5  6  1  0  0  0  0
  6  7  1  0  0  0  0
  7  8  1  0  0  0  0
  8  9  1  0  0  0  0
  9 10  1  0  0  0  0
 10 11  1  0  0  0  0
 11 12  1  0  0  0  0
 12 13  1  0  0  0  0
 13 14  1  0  0  0  0
 14 16  1  0  0  0  0
 15 17  1  0  0  0  0
 16 18  1  0  0  0  0
  2 20  1  0  0  0  0
  2 21  1  0  0  0  0
  2 22  1  0  0  0  0
  3 23  1  0  0  0  0
  3 24  1  0  0  0  0
  3 25  1  0  0  0  0
  4 26  1  0  0  0  0
  4 27  1  0  0  0  0
  5 28  1  0  0  0  0
  5 29  1  0  0  0  0
  6 30  1  0  0  0  0
  6 31  1  0  0  0  0
  7 32  1  0  0  0  0
  7 33  1  0  0  0  0
  8 34  1  0  0  0  0
  8 35  1  0  0  0  0
  9 36  1  0  0  0  0
  9 37  1  0  0  0  0
 10 38  1  0  0  0  0
 10 39  1  0  0  0  0
 11 40  1  0  0  0  0
 11 41  1  0  0  0  0
 12 42  1  0  0  0  0
 12 43  1  0  0  0  0
 13 44  1  0  0  0  0
 13 45  1  0  0  0  0
 14 46  1  0  0  0  0
 14 47  1  0  0  0  0
 15 48  1  0  0  0  0
 15 49  1  0  0  0  0
 16 50  1  0  0  0  0
 16 51  1  0  0  0  0
 17 52  1  0  0  0  0
 18 53  1  0  0  0  0
M  END
> <Name>
IA_94.cdx

> <SourceTag>
IA_94

> <Gold.Version>
5.2

> <Gold.Id.Protein>
6HGV|6HGV_protein|mol2

> <Gold.Goldscore.Fitness>
61.4265

> <Gold.Goldscore.Internal.Vdw>
-5.7143

> <Gold.Goldscore.Internal.Torsion>
-3.4831

> <Gold.Goldscore.External.Vdw>
46.8486

> <Gold.Goldscore.Internal.HBond>
0.0000

> <Gold.Goldscore.External.HBond>
0.0000

> <Gold.Goldscore.Internal.Correction>
-6.2070

> <Gold.Goldscore.Internal.Vdw.Weighted>
-5.7143

> <Gold.Goldscore.Internal.Torsion.Weighted>
-3.4831

> <Gold.Goldscore.External.Vdw.Weighted>
64.4168

> <Gold.Goldscore.Internal.HBond.Weighted>
0.0000

> <Gold.Goldscore.External.HBond.Weighted>
0.0000

> <Gold.Goldscore.Internal.Correction.Weighted>
-6.2070

> <Gold.Protein.RotatedTorsions>
[ 3781 1176 1175 1172 ] final -156.73 input   60.00 | X-H torsion
[ 3847 1247 1246 1244 ] final  108.78 input   60.00 | X-H torsion
[ 4507 1931 1930 1928 ] final  -40.50 input   60.00 | X-H torsion
[ 3677 1070 1069 1066 ] final  -98.35 input   60.00 | X-H torsion
[ 3525  925  924  922 ] final   68.11 input   59.99 | X-H torsion
[ 4531 1957 1955 1953 ] final  104.32 input   60.00 | X-H torsion

> <Gold.Protein.ActiveResidues>
 PHE267  PRO268  MET310  ASP335  TRP336  MET339  TYR343  THR360  PRO361  ILE363 
 PRO371  SER374  ILE375  ASN378  PHE381  TYR383  GLN384  PHE387  LEU408  LEU417 
 MET419  LEU428  TYR466  MET469  ASN472  ASP496  VAL498  LEU499  MET503  HIS524 
 TRP525 

> <Gold.Protein.RotatedAtoms>
   -2.6860  -29.9092  -30.8461 H   0  0  0  0  0  0  0  0  0  0  0  0  # atno 3525 bound_to 925 
  -11.7590  -23.7645  -31.4109 H   0  0  0  0  0  0  0  0  0  0  0  0  # atno 3677 bound_to 1070
   -9.2490  -36.3753  -33.2081 H   0  0  0  0  0  0  0  0  0  0  0  0  # atno 3781 bound_to 1176
  -14.3502  -28.4519  -37.6903 H   0  0  0  0  0  0  0  0  0  0  0  0  # atno 3847 bound_to 1247
  -13.6017  -25.3451  -39.6352 H   0  0  0  0  0  0  0  0  0  0  0  0  # atno 4507 bound_to 1931
   -2.6140  -33.9577  -36.7604 H   0  0  0  0  0  0  0  0  0  0  0  0  # atno 4531 bound_to 1957
  -10.3426  -37.3613  -32.5154 LP  0  0  0  0  0  0  0  0  0  0  0  0  # atno 5205 bound_to 1176
  -10.5247  -36.9001  -34.0713 LP  0  0  0  0  0  0  0  0  0  0  0  0  # atno 5206 bound_to 1176
  -15.8402  -28.5885  -37.0505 LP  0  0  0  0  0  0  0  0  0  0  0  0  # atno 5215 bound_to 1247
  -15.3799  -27.1940  -37.7647 LP  0  0  0  0  0  0  0  0  0  0  0  0  # atno 5216 bound_to 1247
  -13.0846  -23.9898  -40.3726 LP  0  0  0  0  0  0  0  0  0  0  0  0  # atno 5217 bound_to 1931
  -12.5047  -24.3938  -38.9005 LP  0  0  0  0  0  0  0  0  0  0  0  0  # atno 5218 bound_to 1931
  -11.3162  -22.3191  -30.8085 LP  0  0  0  0  0  0  0  0  0  0  0  0  # atno 5224 bound_to 1070
  -12.7802  -22.9446  -30.4449 LP  0  0  0  0  0  0  0  0  0  0  0  0  # atno 5225 bound_to 1070

$$$$
IA_92.cdx|SeH_inactivess_minimized|sdf|171|dock8
  -GOLD-   41821 8293D 1   1.00000     0.00000

 49 48  0  0  0  0  0  0  0  0  1 V2000
   -6.0944  -31.5010  -35.4196 C   0  0  0  0  0  0  0  0  0  0  0  0
   -7.9978  -29.9095  -35.4480 C   0  0  0  0  0  0  0  0  0  0  0  0
  -20.9593  -23.5090  -39.5976 C   0  0  0  0  0  0  0  0  0  0  0  0
   -4.6077  -31.5278  -35.1712 C   0  0  0  0  0  0  0  0  0  0  0  0
  -20.1521  -23.7408  -38.3301 C   0  0  0  0  0  0  0  0  0  0  0  0
  -18.6668  -23.9343  -38.6390 C   0  0  0  0  0  0  0  0  0  0  0  0
  -17.9307  -24.5559  -37.4501 C   0  0  0  0  0  0  0  0  0  0  0  0
  -16.4168  -24.6597  -37.6580 C   0  0  0  0  0  0  0  0  0  0  0  0
  -15.6828  -25.2992  -36.4763 C   0  0  0  0  0  0  0  0  0  0  0  0
  -14.1862  -25.4393  -36.7683 C   0  0  0  0  0  0  0  0  0  0  0  0
  -13.3698  -25.8996  -35.5571 C   0  0  0  0  0  0  0  0  0  0  0  0
  -11.8799  -26.0755  -35.8589 C   0  0  0  0  0  0  0  0  0  0  0  0
  -11.0573  -26.1424  -34.5692 C   0  0  0  0  0  0  0  0  0  0  0  0
   -9.6074  -26.5443  -34.8570 C   0  0  0  0  0  0  0  0  0  0  0  0
   -9.4850  -27.9172  -35.5204 C   0  0  0  0  0  0  0  0  0  0  0  0
   -6.6458  -30.2312  -35.2601 N   0  0  0  0  0  0  0  0  0  0  0  0
   -8.2149  -28.5614  -35.2093 N   0  0  0  0  0  0  0  0  0  0  0  0
   -6.7143  -32.5114  -35.7459 O   0  0  0  0  0  0  0  0  0  0  0  0
   -8.8688  -30.7124  -35.7794 O   0  0  0  0  0  0  0  0  0  0  0  0
   -4.0758  -33.2151  -35.2390 Cl  0  0  0  0  0  0  0  0  0  0  0  0
  -20.5573  -22.6553  -40.1521 H   0  0  0  0  0  0  0  0  0  0  0  0
  -20.9234  -24.3862  -40.2514 H   0  0  0  0  0  0  0  0  0  0  0  0
  -22.0072  -23.2982  -39.3618 H   0  0  0  0  0  0  0  0  0  0  0  0
   -4.0468  -30.9524  -35.9120 H   0  0  0  0  0  0  0  0  0  0  0  0
   -4.3985  -31.1259  -34.1761 H   0  0  0  0  0  0  0  0  0  0  0  0
  -20.5436  -24.6237  -37.8117 H   0  0  0  0  0  0  0  0  0  0  0  0
  -20.2837  -22.8848  -37.6581 H   0  0  0  0  0  0  0  0  0  0  0  0
  -18.2244  -22.9636  -38.8896 H   0  0  0  0  0  0  0  0  0  0  0  0
  -18.5558  -24.5795  -39.5187 H   0  0  0  0  0  0  0  0  0  0  0  0
  -18.1384  -23.9772  -36.5418 H   0  0  0  0  0  0  0  0  0  0  0  0
  -18.3210  -25.5664  -37.2763 H   0  0  0  0  0  0  0  0  0  0  0  0
  -16.0042  -23.6629  -37.8558 H   0  0  0  0  0  0  0  0  0  0  0  0
  -16.2365  -25.2603  -38.5583 H   0  0  0  0  0  0  0  0  0  0  0  0
  -15.8165  -24.6890  -35.5765 H   0  0  0  0  0  0  0  0  0  0  0  0
  -16.1194  -26.2833  -36.2741 H   0  0  0  0  0  0  0  0  0  0  0  0
  -14.0346  -26.1381  -37.6000 H   0  0  0  0  0  0  0  0  0  0  0  0
  -13.7934  -24.4686  -37.0957 H   0  0  0  0  0  0  0  0  0  0  0  0
  -13.7832  -26.8392  -35.1707 H   0  0  0  0  0  0  0  0  0  0  0  0
  -13.4881  -25.1526  -34.7623 H   0  0  0  0  0  0  0  0  0  0  0  0
  -11.5287  -25.2394  -36.4755 H   0  0  0  0  0  0  0  0  0  0  0  0
  -11.7187  -26.9945  -36.4333 H   0  0  0  0  0  0  0  0  0  0  0  0
  -11.0740  -25.1649  -34.0722 H   0  0  0  0  0  0  0  0  0  0  0  0
  -11.5187  -26.8630  -33.8839 H   0  0  0  0  0  0  0  0  0  0  0  0
   -9.1311  -25.7837  -35.4885 H   0  0  0  0  0  0  0  0  0  0  0  0
   -9.0463  -26.5659  -33.9144 H   0  0  0  0  0  0  0  0  0  0  0  0
  -10.3036  -28.5580  -35.1746 H   0  0  0  0  0  0  0  0  0  0  0  0
   -9.5830  -27.8184  -36.6068 H   0  0  0  0  0  0  0  0  0  0  0  0
   -6.0190  -29.4796  -34.9861 H   0  0  0  0  0  0  0  0  0  0  0  0
   -7.4984  -28.0021  -34.7724 H   0  0  0  0  0  0  0  0  0  0  0  0
  1  4  1  0  0  0  0
  1 16  1  0  0  0  0
  1 18  2  0  0  0  0
  2 16  1  0  0  0  0
  2 17  1  0  0  0  0
  2 19  2  0  0  0  0
  3  5  1  0  0  0  0
  4 20  1  0  0  0  0
  5  6  1  0  0  0  0
  6  7  1  0  0  0  0
  7  8  1  0  0  0  0
  8  9  1  0  0  0  0
  9 10  1  0  0  0  0
 10 11  1  0  0  0  0
 11 12  1  0  0  0  0
 12 13  1  0  0  0  0
 13 14  1  0  0  0  0
 14 15  1  0  0  0  0
 15 17  1  0  0  0  0
  3 21  1  0  0  0  0
  3 22  1  0  0  0  0
  3 23  1  0  0  0  0
  4 24  1  0  0  0  0
  4 25  1  0  0  0  0
  5 26  1  0  0  0  0
  5 27  1  0  0  0  0
  6 28  1  0  0  0  0
  6 29  1  0  0  0  0
  7 30  1  0  0  0  0
  7 31  1  0  0  0  0
  8 32  1  0  0  0  0
  8 33  1  0  0  0  0
  9 34  1  0  0  0  0
  9 35  1  0  0  0  0
 10 36  1  0  0  0  0
 10 37  1  0  0  0  0
 11 38  1  0  0  0  0
 11 39  1  0  0  0  0
 12 40  1  0  0  0  0
 12 41  1  0  0  0  0
 13 42  1  0  0  0  0
 13 43  1  0  0  0  0
 14 44  1  0  0  0  0
 14 45  1  0  0  0  0
 15 46  1  0  0  0  0
 15 47  1  0  0  0  0
 16 48  1  0  0  0  0
 17 49  1  0  0  0  0
M  END
> <Name>
IA_92.cdx

> <SourceTag>
IA_92

> <Gold.Version>
5.2

> <Gold.Id.Protein>
6HGV|6HGV_protein|mol2

> <Gold.Goldscore.Fitness>
63.4806

> <Gold.Goldscore.Internal.Vdw>
-9.5947

> <Gold.Goldscore.Internal.Torsion>
-4.8051

> <Gold.Goldscore.External.Vdw>
50.0939

> <Gold.Goldscore.Internal.HBond>
0.0000

> <Gold.Goldscore.External.HBond>
0.0000

> <Gold.Goldscore.Internal.Correction>
-9.0013

> <Gold.Goldscore.Internal.Vdw.Weighted>
-9.5947

> <Gold.Goldscore.Internal.Torsion.Weighted>
-4.8051

> <Gold.Goldscore.External.Vdw.Weighted>
68.8791

> <Gold.Goldscore.Internal.HBond.Weighted>
0.0000

> <Gold.Goldscore.External.HBond.Weighted>
0.0000

> <Gold.Goldscore.Internal.Correction.Weighted>
-9.0013

> <Gold.Protein.RotatedTorsions>
[ 3781 1176 1175 1172 ] final  -65.85 input   60.00 | X-H torsion
[ 3847 1247 1246 1244 ] final  105.62 input   60.00 | X-H torsion
[ 4507 1931 1930 1928 ] final  -68.68 input   60.00 | X-H torsion
[ 3677 1070 1069 1066 ] final  -99.55 input   60.00 | X-H torsion
[ 3525  925  924  922 ] final   29.80 input   59.99 | X-H torsion
[ 4531 1957 1955 1953 ] final  -80.50 input   60.00 | X-H torsion

> <Gold.Protein.ActiveResidues>
 PHE267  PRO268  MET310  ASP335  TRP336  MET339  TYR343  THR360  PRO361  ILE363 
 PRO371  SER374  ILE375  ASN378  PHE381  TYR383  GLN384  PHE387  LEU408  LEU417 
 MET419  LEU428  TYR466  MET469  ASN472  ASP496  VAL498  LEU499  MET503  HIS524 
 TRP525 

> <Gold.Protein.RotatedAtoms>
   -3.2484  -29.6697  -30.7835 H   0  0  0  0  0  0  0  0  0  0  0  0  # atno 3525 bound_to 925 
  -11.7415  -23.7568  -31.4152 H   0  0  0  0  0  0  0  0  0  0  0  0  # atno 3677 bound_to 1070
  -10.1526  -36.6223  -34.1580 H   0  0  0  0  0  0  0  0  0  0  0  0  # atno 3781 bound_to 1176
  -14.3661  -28.4955  -37.6674 H   0  0  0  0  0  0  0  0  0  0  0  0  # atno 3847 bound_to 1247
  -13.6949  -25.1449  -40.0338 H   0  0  0  0  0  0  0  0  0  0  0  0  # atno 4507 bound_to 1931
   -1.6777  -32.3448  -36.9105 H   0  0  0  0  0  0  0  0  0  0  0  0  # atno 4531 bound_to 1957
   -9.2937  -36.5635  -32.7771 LP  0  0  0  0  0  0  0  0  0  0  0  0  # atno 5205 bound_to 1176
  -10.6636  -37.4491  -32.8529 LP  0  0  0  0  0  0  0  0  0  0  0  0  # atno 5206 bound_to 1176
  -15.8722  -28.5476  -37.0536 LP  0  0  0  0  0  0  0  0  0  0  0  0  # atno 5215 bound_to 1247
  -15.3319  -27.1911  -37.7846 LP  0  0  0  0  0  0  0  0  0  0  0  0  # atno 5216 bound_to 1247
  -12.7818  -23.7990  -40.0853 LP  0  0  0  0  0  0  0  0  0  0  0  0  # atno 5217 bound_to 1931
  -12.7136  -24.7862  -38.7863 LP  0  0  0  0  0  0  0  0  0  0  0  0  # atno 5218 bound_to 1931
  -11.3286  -22.3093  -30.7968 LP  0  0  0  0  0  0  0  0  0  0  0  0  # atno 5224 bound_to 1070
  -12.7853  -22.9621  -30.4524 LP  0  0  0  0  0  0  0  0  0  0  0  0  # atno 5225 bound_to 1070

$$$$
IA_107.cdx|SeH_inactivess_minimized|sdf|9|dock8
  -GOLD-   4172118443D 1   1.00000     0.00000

 27 27  0  0  0  0  0  0  0  0  1 V2000
  -14.5863  -26.3846  -35.6156 C   0  0  0  0  0  0  0  0  0  0  0  0
  -10.1722  -25.9945  -33.7278 C   0  0  0  0  0  0  0  0  0  0  0  0
  -10.3563  -25.2017  -35.0191 C   0  0  0  0  0  0  0  0  0  0  0  0
  -11.4374  -26.7559  -33.3415 C   0  0  0  0  0  0  0  0  0  0  0  0
  -10.8538  -26.0911  -36.1593 C   0  0  0  0  0  0  0  0  0  0  0  0
  -11.9322  -27.6419  -34.4857 C   0  0  0  0  0  0  0  0  0  0  0  0
  -12.1263  -26.8682  -35.7966 C   0  0  0  0  0  0  0  0  0  0  0  0
  -16.8963  -25.4729  -35.4250 C   0  0  0  0  0  0  0  0  0  0  0  0
  -13.2638  -25.9529  -35.6814 N   0  0  0  0  0  0  0  0  0  0  0  0
  -15.4643  -25.3087  -35.5099 N   0  0  0  0  0  0  0  0  0  0  0  0
  -14.9356  -27.5639  -35.6463 O   0  0  0  0  0  0  0  0  0  0  0  0
   -9.3390  -26.6985  -33.8431 H   0  0  0  0  0  0  0  0  0  0  0  0
   -9.8980  -25.3084  -32.9154 H   0  0  0  0  0  0  0  0  0  0  0  0
  -11.0674  -24.3853  -34.8526 H   0  0  0  0  0  0  0  0  0  0  0  0
   -9.4023  -24.7429  -35.3054 H   0  0  0  0  0  0  0  0  0  0  0  0
  -11.2358  -27.3775  -32.4611 H   0  0  0  0  0  0  0  0  0  0  0  0
  -12.2231  -26.0466  -33.0598 H   0  0  0  0  0  0  0  0  0  0  0  0
  -11.0386  -25.4692  -37.0527 H   0  0  0  0  0  0  0  0  0  0  0  0
  -10.0546  -26.7943  -36.4480 H   0  0  0  0  0  0  0  0  0  0  0  0
  -11.2188  -28.4689  -34.6408 H   0  0  0  0  0  0  0  0  0  0  0  0
  -12.8822  -28.1211  -34.1913 H   0  0  0  0  0  0  0  0  0  0  0  0
  -12.3759  -27.5593  -36.5977 H   0  0  0  0  0  0  0  0  0  0  0  0
  -17.1957  -25.6280  -34.3852 H   0  0  0  0  0  0  0  0  0  0  0  0
  -17.2133  -26.3372  -36.0151 H   0  0  0  0  0  0  0  0  0  0  0  0
  -17.4023  -24.5826  -35.8079 H   0  0  0  0  0  0  0  0  0  0  0  0
  -13.0792  -24.9548  -35.6478 H   0  0  0  0  0  0  0  0  0  0  0  0
  -15.0822  -24.3705  -35.4452 H   0  0  0  0  0  0  0  0  0  0  0  0
  1  9  1  0  0  0  0
  1 10  1  0  0  0  0
  1 11  2  0  0  0  0
  2  3  1  0  0  0  0
  2  4  1  0  0  0  0
  3  5  1  0  0  0  0
  4  6  1  0  0  0  0
  5  7  1  0  0  0  0
  6  7  1  0  0  0  0
  7  9  1  0  0  0  0
  8 10  1  0  0  0  0
  2 12  1  0  0  0  0
  2 13  1  0  0  0  0
  3 14  1  0  0  0  0
  3 15  1  0  0  0  0
  4 16  1  0  0  0  0
  4 17  1  0  0  0  0
  5 18  1  0  0  0  0
  5 19  1  0  0  0  0
  6 20  1  0  0  0  0
  6 21  1  0  0  0  0
  7 22  1  0  0  0  0
  8 23  1  0  0  0  0
  8 24  1  0  0  0  0
  8 25  1  0  0  0  0
  9 26  1  0  0  0  0
 10 27  1  0  0  0  0
M  END
> <Name>
IA_107.cdx

> <SourceTag>
IA_107

> <Gold.Version>
5.2

> <Gold.Id.Protein>
6HGV|6HGV_protein|mol2

> <Gold.Goldscore.Fitness>
40.8169

> <Gold.Goldscore.Internal.Vdw>
-0.9037

> <Gold.Goldscore.Internal.Torsion>
-1.1535

> <Gold.Goldscore.External.Vdw>
26.7573

> <Gold.Goldscore.Internal.HBond>
0.0000

> <Gold.Goldscore.External.HBond>
4.0869

> <Gold.Goldscore.Internal.Correction>
-1.9959

> <Gold.Goldscore.Hbonds>
donor molecule, donor type, donor heavy atom, donor atom, acceptor molecule, acceptor atom, score
      L1  H     9    26       P1   853  0.13
      L1  H    10    27       P1   853  0.55

> <Gold.Goldscore.Internal.Vdw.Weighted>
-0.9037

> <Gold.Goldscore.Internal.Torsion.Weighted>
-1.1535

> <Gold.Goldscore.External.Vdw.Weighted>
36.7913

> <Gold.Goldscore.Internal.HBond.Weighted>
0.0000

> <Gold.Goldscore.External.HBond.Weighted>
4.0869

> <Gold.Goldscore.Internal.Correction.Weighted>
-1.9959

> <Gold.Protein.RotatedTorsions>
[ 3781 1176 1175 1172 ] final  -27.87 input   60.00 | X-H torsion
[ 3847 1247 1246 1244 ] final -177.41 input   60.00 | X-H torsion
[ 4507 1931 1930 1928 ] final   15.91 input   60.00 | X-H torsion
[ 3677 1070 1069 1066 ] final -103.97 input   60.00 | X-H torsion
[ 3525  925  924  922 ] final -101.39 input   59.99 | X-H torsion
[ 4531 1957 1955 1953 ] final   40.63 input   60.00 | X-H torsion

> <Gold.Protein.ActiveResidues>
 PHE267  PRO268  MET310  ASP335  TRP336  MET339  TYR343  THR360  PRO361  ILE363 
 PRO371  SER374  ILE375  ASN378  PHE381  TYR383  GLN384  PHE387  LEU408  LEU417 
 MET419  LEU428  TYR466  MET469  ASN472  ASP496  VAL498  LEU499  MET503  HIS524 
 TRP525 

> <Gold.Protein.RotatedAtoms>
   -3.2885  -29.8077  -29.0845 H   0  0  0  0  0  0  0  0  0  0  0  0  # atno 3525 bound_to 925 
  -11.6778  -23.7258  -31.4288 H   0  0  0  0  0  0  0  0  0  0  0  0  # atno 3677 bound_to 1070
  -10.6112  -36.9891  -33.9957 H   0  0  0  0  0  0  0  0  0  0  0  0  # atno 3781 bound_to 1176
  -14.7015  -27.4156  -37.9489 H   0  0  0  0  0  0  0  0  0  0  0  0  # atno 3847 bound_to 1247
  -13.0845  -25.1957  -38.9329 H   0  0  0  0  0  0  0  0  0  0  0  0  # atno 4507 bound_to 1931
   -3.0984  -33.1033  -36.6535 H   0  0  0  0  0  0  0  0  0  0  0  0  # atno 4531 bound_to 1957
   -9.2704  -36.3348  -33.3460 LP  0  0  0  0  0  0  0  0  0  0  0  0  # atno 5205 bound_to 1176
  -10.2251  -37.3084  -32.4475 LP  0  0  0  0  0  0  0  0  0  0  0  0  # atno 5206 bound_to 1176
  -14.7951  -28.9194  -37.3342 LP  0  0  0  0  0  0  0  0  0  0  0  0  # atno 5215 bound_to 1247
  -16.0713  -27.9068  -37.2206 LP  0  0  0  0  0  0  0  0  0  0  0  0  # atno 5216 bound_to 1247
  -13.6063  -24.7119  -40.3963 LP  0  0  0  0  0  0  0  0  0  0  0  0  # atno 5217 bound_to 1931
  -12.5039  -23.8221  -39.5841 LP  0  0  0  0  0  0  0  0  0  0  0  0  # atno 5218 bound_to 1931
  -11.3770  -22.2759  -30.7540 LP  0  0  0  0  0  0  0  0  0  0  0  0  # atno 5224 bound_to 1070
  -12.8012  -23.0268  -30.4814 LP  0  0  0  0  0  0  0  0  0  0  0  0  # atno 5225 bound_to 1070

$$$$
IA_52.cdx|SeH_inactivess_minimized|sdf|137|dock6
  -GOLD-   4172121513D 1   1.00000     0.00000

 18 18  0  0  0  0  0  0  0  0  1 V2000
   -8.9257  -27.4815  -35.0503 C   0  0  0  0  0  0  0  0  0  0  0  0
   -9.1365  -26.2067  -34.5251 C   0  0  0  0  0  0  0  0  0  0  0  0
   -9.7283  -27.9485  -36.0912 C   0  0  0  0  0  0  0  0  0  0  0  0
  -10.1500  -25.3987  -35.0406 C   0  0  0  0  0  0  0  0  0  0  0  0
  -10.7419  -27.1406  -36.6068 C   0  0  0  0  0  0  0  0  0  0  0  0
  -10.9527  -25.8657  -36.0814 C   0  0  0  0  0  0  0  0  0  0  0  0
  -13.1291  -25.4459  -37.2828 C   0  0  0  0  0  0  0  0  0  0  0  0
  -13.9025  -24.3502  -37.6419 N   0  0  0  0  0  0  0  0  0  0  0  0
  -11.9663  -25.0574  -36.5971 N   0  0  0  0  0  0  0  0  0  0  0  0
  -13.4720  -26.5927  -37.5587 O   0  0  0  0  0  0  0  0  0  0  0  0
   -8.1361  -28.1106  -34.6497 H   0  0  0  0  0  0  0  0  0  0  0  0
   -8.5112  -25.8425  -33.7153 H   0  0  0  0  0  0  0  0  0  0  0  0
   -9.5633  -28.9409  -36.5007 H   0  0  0  0  0  0  0  0  0  0  0  0
  -10.3049  -24.4069  -34.6234 H   0  0  0  0  0  0  0  0  0  0  0  0
  -11.3612  -27.5151  -37.4181 H   0  0  0  0  0  0  0  0  0  0  0  0
  -14.7708  -24.5025  -38.1439 H   0  0  0  0  0  0  0  0  0  0  0  0
  -13.6233  -23.4016  -37.4159 H   0  0  0  0  0  0  0  0  0  0  0  0
  -11.8629  -24.0457  -36.4657 H   0  0  0  0  0  0  0  0  0  0  0  0
  1  2  2  0  0  0  0
  1  3  1  0  0  0  0
  2  4  1  0  0  0  0
  3  5  2  0  0  0  0
  4  6  2  0  0  0  0
  5  6  1  0  0  0  0
  6  9  1  0  0  0  0
  7  8  1  0  0  0  0
  7  9  1  0  0  0  0
  7 10  2  0  0  0  0
  1 11  1  0  0  0  0
  2 12  1  0  0  0  0
  3 13  1  0  0  0  0
  4 14  1  0  0  0  0
  5 15  1  0  0  0  0
  8 16  1  0  0  0  0
  8 17  1  0  0  0  0
  9 18  1  0  0  0  0
M  END
> <Name>
IA_52.cdx

> <SourceTag>
IA_52

> <Gold.Version>
5.2

> <Gold.Id.Protein>
6HGV|6HGV_protein|mol2

> <Gold.Goldscore.Fitness>
40.8763

> <Gold.Goldscore.Internal.Vdw>
-1.1627

> <Gold.Goldscore.Internal.Torsion>
-1.0121

> <Gold.Goldscore.External.Vdw>
25.9302

> <Gold.Goldscore.Internal.HBond>
0.0000

> <Gold.Goldscore.External.HBond>
5.4189

> <Gold.Goldscore.Internal.Correction>
-1.9783

> <Gold.Goldscore.Hbonds>
donor molecule, donor type, donor heavy atom, donor atom, acceptor molecule, acceptor atom, score
      P1  H  1247  3847       L1    10  0.41
      L1  H     8    17       P1   854  0.51
      L1  H     9    18       P1   854  0.25

> <Gold.Goldscore.Internal.Vdw.Weighted>
-1.1627

> <Gold.Goldscore.Internal.Torsion.Weighted>
-1.0121

> <Gold.Goldscore.External.Vdw.Weighted>
35.6540

> <Gold.Goldscore.Internal.HBond.Weighted>
0.0000

> <Gold.Goldscore.External.HBond.Weighted>
5.4189

> <Gold.Goldscore.Internal.Correction.Weighted>
-1.9783

> <Gold.Protein.RotatedTorsions>
[ 3781 1176 1175 1172 ] final    2.83 input   60.00 | X-H torsion
[ 3847 1247 1246 1244 ] final  174.06 input   60.00 | X-H torsion
[ 4507 1931 1930 1928 ] final  166.47 input   60.00 | X-H torsion
[ 3677 1070 1069 1066 ] final -118.89 input   60.00 | X-H torsion
[ 3525  925  924  922 ] final  170.21 input   59.99 | X-H torsion
[ 4531 1957 1955 1953 ] final  -99.89 input   60.00 | X-H torsion

> <Gold.Protein.ActiveResidues>
 PHE267  PRO268  MET310  ASP335  TRP336  MET339  TYR343  THR360  PRO361  ILE363 
 PRO371  SER374  ILE375  ASN378  PHE381  TYR383  GLN384  PHE387  LEU408  LEU417 
 MET419  LEU428  TYR466  MET469  ASN472  ASP496  VAL498  LEU499  MET503  HIS524 
 TRP525 

> <Gold.Protein.RotatedAtoms>
   -2.1519  -30.2617  -29.5381 H   0  0  0  0  0  0  0  0  0  0  0  0  # atno 3525 bound_to 925 
  -11.4768  -23.5909  -31.4508 H   0  0  0  0  0  0  0  0  0  0  0  0  # atno 3677 bound_to 1070
  -10.8101  -37.2586  -33.6303 H   0  0  0  0  0  0  0  0  0  0  0  0  # atno 3781 bound_to 1176
  -14.5983  -27.5091  -37.9536 H   0  0  0  0  0  0  0  0  0  0  0  0  # atno 3847 bound_to 1247
  -12.7351  -23.7909  -40.0209 H   0  0  0  0  0  0  0  0  0  0  0  0  # atno 4507 bound_to 1931
   -1.4501  -32.5580  -36.9575 H   0  0  0  0  0  0  0  0  0  0  0  0  # atno 4531 bound_to 1957
   -9.4933  -36.3164  -33.7923 LP  0  0  0  0  0  0  0  0  0  0  0  0  # atno 5205 bound_to 1176
   -9.8019  -37.0554  -32.3692 LP  0  0  0  0  0  0  0  0  0  0  0  0  # atno 5206 bound_to 1176
  -14.9172  -28.9526  -37.2735 LP  0  0  0  0  0  0  0  0  0  0  0  0  # atno 5215 bound_to 1247
  -16.0531  -27.7795  -37.2765 LP  0  0  0  0  0  0  0  0  0  0  0  0  # atno 5216 bound_to 1247
  -12.7598  -24.8514  -38.7869 LP  0  0  0  0  0  0  0  0  0  0  0  0  # atno 5217 bound_to 1931
  -13.7022  -25.0974  -40.0977 LP  0  0  0  0  0  0  0  0  0  0  0  0  # atno 5218 bound_to 1931
  -11.5634  -22.1962  -30.6169 LP  0  0  0  0  0  0  0  0  0  0  0  0  # atno 5224 bound_to 1070
  -12.8171  -23.2423  -30.5963 LP  0  0  0  0  0  0  0  0  0  0  0  0  # atno 5225 bound_to 1070

$$$$
IA_193.cdx|SeH_inactivess_minimized|sdf|93|dock4
  -GOLD-   4172120313D 1   1.00000     0.00000

 21 20  0  0  0  0  0  0  0  0  1 V2000
  -15.1805  -23.9028  -37.5145 C   0  0  0  0  0  0  0  0  0  0  0  0
  -17.6592  -24.2621  -37.2907 C   0  0  0  0  0  0  0  0  0  0  0  0
  -16.8145  -22.4134  -38.6764 C   0  0  0  0  0  0  0  0  0  0  0  0
  -13.6308  -25.5752  -36.5187 C   0  0  0  0  0  0  0  0  0  0  0  0
  -16.0464  -25.8034  -36.0983 C   0  0  0  0  0  0  0  0  0  0  0  0
  -14.1526  -23.2026  -37.9363 N   0  0  0  0  0  0  0  0  0  0  0  0
  -16.5015  -23.4988  -37.7505 N   0  0  0  0  0  0  0  0  0  0  0  0
  -14.9813  -25.0945  -36.8023 N   0  0  0  0  0  0  0  0  0  0  0  0
  -18.5792  -23.7072  -37.4921 H   0  0  0  0  0  0  0  0  0  0  0  0
  -17.5876  -24.4464  -36.2154 H   0  0  0  0  0  0  0  0  0  0  0  0
  -17.7078  -25.2237  -37.8086 H   0  0  0  0  0  0  0  0  0  0  0  0
  -16.2620  -22.5452  -39.6103 H   0  0  0  0  0  0  0  0  0  0  0  0
  -16.5388  -21.4507  -38.2373 H   0  0  0  0  0  0  0  0  0  0  0  0
  -17.8848  -22.4033  -38.8990 H   0  0  0  0  0  0  0  0  0  0  0  0
  -13.5829  -26.6595  -36.6485 H   0  0  0  0  0  0  0  0  0  0  0  0
  -13.3511  -25.3310  -35.4903 H   0  0  0  0  0  0  0  0  0  0  0  0
  -12.9128  -25.1074  -37.1976 H   0  0  0  0  0  0  0  0  0  0  0  0
  -15.6209  -26.4504  -35.3267 H   0  0  0  0  0  0  0  0  0  0  0  0
  -16.6174  -26.4194  -36.7984 H   0  0  0  0  0  0  0  0  0  0  0  0
  -16.7259  -25.0902  -35.6242 H   0  0  0  0  0  0  0  0  0  0  0  0
  -14.4807  -22.3691  -38.4323 H   0  0  0  0  0  0  0  0  0  0  0  0
  1  6  2  0  0  0  0
  1  7  1  0  0  0  0
  1  8  1  0  0  0  0
  2  7  1  0  0  0  0
  3  7  1  0  0  0  0
  4  8  1  0  0  0  0
  5  8  1  0  0  0  0
  2  9  1  0  0  0  0
  2 10  1  0  0  0  0
  2 11  1  0  0  0  0
  3 12  1  0  0  0  0
  3 13  1  0  0  0  0
  3 14  1  0  0  0  0
  4 15  1  0  0  0  0
  4 16  1  0  0  0  0
  4 17  1  0  0  0  0
  5 18  1  0  0  0  0
  5 19  1  0  0  0  0
  5 20  1  0  0  0  0
  6 21  1  0  0  0  0
M  END
> <Name>
IA_193.cdx

> <SourceTag>
IA_193

> <Gold.Version>
5.2

> <Gold.Id.Protein>
6HGV|6HGV_protein|mol2

> <Gold.Goldscore.Fitness>
30.0627

> <Gold.Goldscore.Internal.Vdw>
-69.4316

> <Gold.Goldscore.Internal.Torsion>
-6.6146

> <Gold.Goldscore.External.Vdw>
21.0398

> <Gold.Goldscore.Internal.HBond>
0.0000

> <Gold.Goldscore.External.HBond>
1.2390

> <Gold.Goldscore.Internal.Correction>
-75.9401

> <Gold.Goldscore.Hbonds>
donor molecule, donor type, donor heavy atom, donor atom, acceptor molecule, acceptor atom, score
      L1  H     6    21       P1   302  0.62

> <Gold.Goldscore.Internal.Vdw.Weighted>
-69.4316

> <Gold.Goldscore.Internal.Torsion.Weighted>
-6.6146

> <Gold.Goldscore.External.Vdw.Weighted>
28.9297

> <Gold.Goldscore.Internal.HBond.Weighted>
0.0000

> <Gold.Goldscore.External.HBond.Weighted>
1.2390

> <Gold.Goldscore.Internal.Correction.Weighted>
-75.9401

> <Gold.Protein.RotatedTorsions>
[ 3781 1176 1175 1172 ] final   91.74 input   60.00 | X-H torsion
[ 3847 1247 1246 1244 ] final   85.62 input   60.00 | X-H torsion
[ 4507 1931 1930 1928 ] final  -38.34 input   60.00 | X-H torsion
[ 3677 1070 1069 1066 ] final   54.09 input   60.00 | X-H torsion
[ 3525  925  924  922 ] final  171.36 input   59.99 | X-H torsion
[ 4531 1957 1955 1953 ] final  -49.82 input   60.00 | X-H torsion

> <Gold.Protein.ActiveResidues>
 PHE267  PRO268  MET310  ASP335  TRP336  MET339  TYR343  THR360  PRO361  ILE363 
 PRO371  SER374  ILE375  ASN378  PHE381  TYR383  GLN384  PHE387  LEU408  LEU417 
 MET419  LEU428  TYR466  MET469  ASN472  ASP496  VAL498  LEU499  MET503  HIS524 
 TRP525 

> <Gold.Protein.RotatedAtoms>
   -2.1599  -30.2597  -29.5213 H   0  0  0  0  0  0  0  0  0  0  0  0  # atno 3525 bound_to 925 
  -12.5090  -22.5105  -30.3281 H   0  0  0  0  0  0  0  0  0  0  0  0  # atno 3677 bound_to 1070
  -10.2277  -37.3098  -32.4564 H   0  0  0  0  0  0  0  0  0  0  0  0  # atno 3781 bound_to 1176
  -14.5216  -28.7363  -37.5143 H   0  0  0  0  0  0  0  0  0  0  0  0  # atno 3847 bound_to 1247
  -13.5888  -25.3533  -39.6034 H   0  0  0  0  0  0  0  0  0  0  0  0  # atno 4507 bound_to 1931
   -2.1414  -32.1958  -36.8198 H   0  0  0  0  0  0  0  0  0  0  0  0  # atno 4531 bound_to 1957
  -10.6128  -36.9842  -34.0036 LP  0  0  0  0  0  0  0  0  0  0  0  0  # atno 5205 bound_to 1176
   -9.2689  -36.3361  -33.3400 LP  0  0  0  0  0  0  0  0  0  0  0  0  # atno 5206 bound_to 1176
  -16.0230  -28.2614  -37.1039 LP  0  0  0  0  0  0  0  0  0  0  0  0  # atno 5215 bound_to 1247
  -15.0246  -27.2347  -37.8886 LP  0  0  0  0  0  0  0  0  0  0  0  0  # atno 5216 bound_to 1247
  -13.1085  -24.0110  -40.3880 LP  0  0  0  0  0  0  0  0  0  0  0  0  # atno 5217 bound_to 1931
  -12.4938  -24.3644  -38.9171 LP  0  0  0  0  0  0  0  0  0  0  0  0  # atno 5218 bound_to 1931
  -12.2422  -23.8441  -31.2217 LP  0  0  0  0  0  0  0  0  0  0  0  0  # atno 5224 bound_to 1070
  -11.0990  -22.6823  -31.1221 LP  0  0  0  0  0  0  0  0  0  0  0  0  # atno 5225 bound_to 1070

$$$$
IA_82.cdx|SeH_inactivess_minimized|sdf|160|dock3
  -GOLD-   4172122203D 1   1.00000     0.00000

 56 55  0  0  0  0  0  0  0  0  1 V2000
   -7.0310  -30.3254  -34.1717 C   0  0  0  0  0  0  0  0  0  0  0  0
  -11.4651  -27.0038  -35.5982 C   0  0  0  0  0  0  0  0  0  0  0  0
  -10.3823  -25.0118  -34.5923 C   0  0  0  0  0  0  0  0  0  0  0  0
  -11.2234  -26.8246  -33.1062 C   0  0  0  0  0  0  0  0  0  0  0  0
   -4.0969  -32.3597  -30.3757 C   0  0  0  0  0  0  0  0  0  0  0  0
   -6.5109  -32.9219  -30.2832 C   0  0  0  0  0  0  0  0  0  0  0  0
   -5.8210  -30.5851  -30.7985 C   0  0  0  0  0  0  0  0  0  0  0  0
   -9.8709  -29.4771  -33.6772 C   0  0  0  0  0  0  0  0  0  0  0  0
   -9.0770  -29.2091  -36.0178 C   0  0  0  0  0  0  0  0  0  0  0  0
   -3.4534  -31.2139  -33.4756 C   0  0  0  0  0  0  0  0  0  0  0  0
   -5.0881  -32.3133  -34.9924 C   0  0  0  0  0  0  0  0  0  0  0  0
   -9.1164  -27.1703  -34.5657 C   0  0  0  0  0  0  0  0  0  0  0  0
   -5.4976  -32.4804  -32.5283 C   0  0  0  0  0  0  0  0  0  0  0  0
  -10.5433  -26.5453  -34.4532 C   0  0  0  0  0  0  0  0  0  0  0  0
   -5.4606  -32.0595  -31.0248 C   0  0  0  0  0  0  0  0  0  0  0  0
   -8.8914  -28.7106  -34.5699 C   0  0  0  0  0  0  0  0  0  0  0  0
   -4.9333  -31.5640  -33.6529 C   0  0  0  0  0  0  0  0  0  0  0  0
   -7.5300  -29.0305  -34.1753 N   0  0  0  0  0  0  0  0  0  0  0  0
   -5.7034  -30.3465  -33.7519 N   0  0  0  0  0  0  0  0  0  0  0  0
   -7.6715  -31.3246  -34.4958 O   0  0  0  0  0  0  0  0  0  0  0  0
  -12.3622  -26.3890  -35.6875 H   0  0  0  0  0  0  0  0  0  0  0  0
  -11.7799  -28.0444  -35.4622 H   0  0  0  0  0  0  0  0  0  0  0  0
  -10.9499  -26.9416  -36.5643 H   0  0  0  0  0  0  0  0  0  0  0  0
  -11.3537  -24.5064  -34.5426 H   0  0  0  0  0  0  0  0  0  0  0  0
   -9.9149  -24.7466  -35.5476 H   0  0  0  0  0  0  0  0  0  0  0  0
   -9.7529  -24.6019  -33.7940 H   0  0  0  0  0  0  0  0  0  0  0  0
  -11.7772  -27.7705  -33.1347 H   0  0  0  0  0  0  0  0  0  0  0  0
  -10.4981  -26.9079  -32.2914 H   0  0  0  0  0  0  0  0  0  0  0  0
  -11.9395  -26.0354  -32.8525 H   0  0  0  0  0  0  0  0  0  0  0  0
   -4.0845  -32.1460  -29.3056 H   0  0  0  0  0  0  0  0  0  0  0  0
   -3.2965  -31.7779  -30.8462 H   0  0  0  0  0  0  0  0  0  0  0  0
   -3.8372  -33.4197  -30.4827 H   0  0  0  0  0  0  0  0  0  0  0  0
   -6.4648  -32.7564  -29.2007 H   0  0  0  0  0  0  0  0  0  0  0  0
   -6.3483  -33.9903  -30.4662 H   0  0  0  0  0  0  0  0  0  0  0  0
   -7.5288  -32.6836  -30.6131 H   0  0  0  0  0  0  0  0  0  0  0  0
   -5.9727  -30.3772  -29.7327 H   0  0  0  0  0  0  0  0  0  0  0  0
   -5.0288  -29.9130  -31.1416 H   0  0  0  0  0  0  0  0  0  0  0  0
   -6.7486  -30.3196  -31.3175 H   0  0  0  0  0  0  0  0  0  0  0  0
  -10.8829  -29.4609  -34.1002 H   0  0  0  0  0  0  0  0  0  0  0  0
   -9.9253  -29.0394  -32.6750 H   0  0  0  0  0  0  0  0  0  0  0  0
   -9.6010  -30.5334  -33.5898 H   0  0  0  0  0  0  0  0  0  0  0  0
  -10.0792  -28.9760  -36.3949 H   0  0  0  0  0  0  0  0  0  0  0  0
   -8.3462  -28.7475  -36.6927 H   0  0  0  0  0  0  0  0  0  0  0  0
   -8.9356  -30.2942  -36.0862 H   0  0  0  0  0  0  0  0  0  0  0  0
   -3.0359  -30.7937  -34.3990 H   0  0  0  0  0  0  0  0  0  0  0  0
   -2.8612  -32.0983  -33.2186 H   0  0  0  0  0  0  0  0  0  0  0  0
   -3.3049  -30.4506  -32.7065 H   0  0  0  0  0  0  0  0  0  0  0  0
   -5.0375  -31.6246  -35.8431 H   0  0  0  0  0  0  0  0  0  0  0  0
   -4.3003  -33.0655  -35.1190 H   0  0  0  0  0  0  0  0  0  0  0  0
   -6.0474  -32.8419  -35.0438 H   0  0  0  0  0  0  0  0  0  0  0  0
   -8.5184  -26.7694  -33.7331 H   0  0  0  0  0  0  0  0  0  0  0  0
   -8.6519  -26.7575  -35.4733 H   0  0  0  0  0  0  0  0  0  0  0  0
   -6.5493  -32.6792  -32.7855 H   0  0  0  0  0  0  0  0  0  0  0  0
   -4.9974  -33.4572  -32.6043 H   0  0  0  0  0  0  0  0  0  0  0  0
   -6.9193  -28.2763  -33.8906 H   0  0  0  0  0  0  0  0  0  0  0  0
   -5.2409  -29.4660  -33.5485 H   0  0  0  0  0  0  0  0  0  0  0  0
  1 18  1  0  0  0  0
  1 19  1  0  0  0  0
  1 20  2  0  0  0  0
  2 14  1  0  0  0  0
  3 14  1  0  0  0  0
  4 14  1  0  0  0  0
  5 15  1  0  0  0  0
  6 15  1  0  0  0  0
  7 15  1  0  0  0  0
  8 16  1  0  0  0  0
  9 16  1  0  0  0  0
 10 17  1  0  0  0  0
 11 17  1  0  0  0  0
 12 14  1  0  0  0  0
 12 16  1  0  0  0  0
 13 15  1  0  0  0  0
 13 17  1  0  0  0  0
 16 18  1  0  0  0  0
 17 19  1  0  0  0  0
  2 21  1  0  0  0  0
  2 22  1  0  0  0  0
  2 23  1  0  0  0  0
  3 24  1  0  0  0  0
  3 25  1  0  0  0  0
  3 26  1  0  0  0  0
  4 27  1  0  0  0  0
  4 28  1  0  0  0  0
  4 29  1  0  0  0  0
  5 30  1  0  0  0  0
  5 31  1  0  0  0  0
  5 32  1  0  0  0  0
  6 33  1  0  0  0  0
  6 34  1  0  0  0  0
  6 35  1  0  0  0  0
  7 36  1  0  0  0  0
  7 37  1  0  0  0  0
  7 38  1  0  0  0  0
  8 39  1  0  0  0  0
  8 40  1  0  0  0  0
  8 41  1  0  0  0  0
  9 42  1  0  0  0  0
  9 43  1  0  0  0  0
  9 44  1  0  0  0  0
 10 45  1  0  0  0  0
 10 46  1  0  0  0  0
 10 47  1  0  0  0  0
 11 48  1  0  0  0  0
 11 49  1  0  0  0  0
 11 50  1  0  0  0  0
 12 51  1  0  0  0  0
 12 52  1  0  0  0  0
 13 53  1  0  0  0  0
 13 54  1  0  0  0  0
 18 55  1  0  0  0  0
 19 56  1  0  0  0  0
M  END
> <Name>
IA_82.cdx

> <SourceTag>
IA_82

> <Gold.Version>
5.2

> <Gold.Id.Protein>
6HGV|6HGV_protein|mol2

> <Gold.Goldscore.Fitness>
49.6337

> <Gold.Goldscore.Internal.Vdw>
-17.2969

> <Gold.Goldscore.Internal.Torsion>
-6.0581

> <Gold.Goldscore.External.Vdw>
38.4664

> <Gold.Goldscore.Internal.HBond>
0.0000

> <Gold.Goldscore.External.HBond>
0.0000

> <Gold.Goldscore.Internal.Correction>
-20.0973

> <Gold.Goldscore.Internal.Vdw.Weighted>
-17.2969

> <Gold.Goldscore.Internal.Torsion.Weighted>
-6.0581

> <Gold.Goldscore.External.Vdw.Weighted>
52.8913

> <Gold.Goldscore.Internal.HBond.Weighted>
0.0000

> <Gold.Goldscore.External.HBond.Weighted>
0.0000

> <Gold.Goldscore.Internal.Correction.Weighted>
-20.0973

> <Gold.Protein.RotatedTorsions>
[ 3781 1176 1175 1172 ] final  178.33 input   60.00 | X-H torsion
[ 3847 1247 1246 1244 ] final -177.99 input   60.00 | X-H torsion
[ 4507 1931 1930 1928 ] final   63.59 input   60.00 | X-H torsion
[ 3677 1070 1069 1066 ] final -117.05 input   60.00 | X-H torsion
[ 3525  925  924  922 ] final -116.88 input   59.99 | X-H torsion
[ 4531 1957 1955 1953 ] final  -36.81 input   60.00 | X-H torsion

> <Gold.Protein.ActiveResidues>
 PHE267  PRO268  MET310  ASP335  TRP336  MET339  TYR343  THR360  PRO361  ILE363 
 PRO371  SER374  ILE375  ASN378  PHE381  TYR383  GLN384  PHE387  LEU408  LEU417 
 MET419  LEU428  TYR466  MET469  ASN472  ASP496  VAL498  LEU499  MET503  HIS524 
 TRP525 

> <Gold.Protein.RotatedAtoms>
   -3.0685  -29.9100  -29.0150 H   0  0  0  0  0  0  0  0  0  0  0  0  # atno 3525 bound_to 925 
  -11.5001  -23.6098  -31.4502 H   0  0  0  0  0  0  0  0  0  0  0  0  # atno 3677 bound_to 1070
   -9.2783  -36.5337  -32.8373 H   0  0  0  0  0  0  0  0  0  0  0  0  # atno 3781 bound_to 1176
  -14.6941  -27.4215  -37.9495 H   0  0  0  0  0  0  0  0  0  0  0  0  # atno 3847 bound_to 1247
  -12.6104  -24.6170  -38.8186 H   0  0  0  0  0  0  0  0  0  0  0  0  # atno 4507 bound_to 1931
   -2.3492  -32.2119  -36.7806 H   0  0  0  0  0  0  0  0  0  0  0  0  # atno 4531 bound_to 1957
  -10.6257  -37.4452  -32.7957 LP  0  0  0  0  0  0  0  0  0  0  0  0  # atno 5205 bound_to 1176
  -10.2120  -36.6565  -34.1644 LP  0  0  0  0  0  0  0  0  0  0  0  0  # atno 5206 bound_to 1176
  -14.8032  -28.9222  -37.3299 LP  0  0  0  0  0  0  0  0  0  0  0  0  # atno 5215 bound_to 1247
  -16.0706  -27.8980  -37.2242 LP  0  0  0  0  0  0  0  0  0  0  0  0  # atno 5216 bound_to 1247
  -13.6782  -25.2558  -39.8672 LP  0  0  0  0  0  0  0  0  0  0  0  0  # atno 5217 bound_to 1931
  -12.9094  -23.8611  -40.2283 LP  0  0  0  0  0  0  0  0  0  0  0  0  # atno 5218 bound_to 1931
  -11.5388  -22.2031  -30.6330 LP  0  0  0  0  0  0  0  0  0  0  0  0  # atno 5224 bound_to 1070
  -12.8183  -23.2164  -30.5810 LP  0  0  0  0  0  0  0  0  0  0  0  0  # atno 5225 bound_to 1070

$$$$
IA_159.cdx|SeH_inactivess_minimized|sdf|60|dock7
  -GOLD-   4172119553D 1   1.00000     0.00000

 50 52  0  0  0  0  0  0  0  0  1 V2000
   -9.3810  -30.9456  -36.1958 C   0  0  0  0  0  0  0  0  0  0  0  0
  -10.7875  -25.7587  -33.2539 C   0  0  0  0  0  0  0  0  0  0  0  0
  -11.2492  -32.8306  -32.0968 C   0  0  0  0  0  0  0  0  0  0  0  0
   -4.9653  -29.8893  -34.0413 C   0  0  0  0  0  0  0  0  0  0  0  0
  -11.2353  -26.8927  -32.5762 C   0  0  0  0  0  0  0  0  0  0  0  0
   -9.8600  -25.8850  -34.2881 C   0  0  0  0  0  0  0  0  0  0  0  0
  -10.1227  -32.1937  -31.5765 C   0  0  0  0  0  0  0  0  0  0  0  0
  -11.7473  -32.4576  -33.3452 C   0  0  0  0  0  0  0  0  0  0  0  0
   -5.7545  -29.9620  -32.8935 C   0  0  0  0  0  0  0  0  0  0  0  0
   -5.5655  -29.7506  -35.2928 C   0  0  0  0  0  0  0  0  0  0  0  0
  -10.7555  -28.1530  -32.9328 C   0  0  0  0  0  0  0  0  0  0  0  0
   -9.3803  -27.1453  -34.6446 C   0  0  0  0  0  0  0  0  0  0  0  0
   -9.4943  -31.1833  -32.3046 C   0  0  0  0  0  0  0  0  0  0  0  0
  -11.1188  -31.4473  -34.0733 C   0  0  0  0  0  0  0  0  0  0  0  0
   -7.1439  -29.8960  -32.9971 C   0  0  0  0  0  0  0  0  0  0  0  0
   -6.9549  -29.6847  -35.3965 C   0  0  0  0  0  0  0  0  0  0  0  0
   -9.8280  -28.2794  -33.9670 C   0  0  0  0  0  0  0  0  0  0  0  0
   -9.9923  -30.8102  -33.5530 C   0  0  0  0  0  0  0  0  0  0  0  0
   -7.7441  -29.7574  -34.2486 C   0  0  0  0  0  0  0  0  0  0  0  0
   -7.4996  -32.1418  -34.8360 C   0  0  0  0  0  0  0  0  0  0  0  0
   -9.6178  -33.4934  -34.7879 C   0  0  0  0  0  0  0  0  0  0  0  0
   -7.8181  -34.0433  -36.4538 C   0  0  0  0  0  0  0  0  0  0  0  0
   -9.2925  -29.6842  -34.3649 C   0  0  0  0  0  0  0  0  0  0  0  0
   -8.5094  -32.9254  -35.6737 C   0  0  0  0  0  0  0  0  0  0  0  0
   -9.6409  -29.8807  -35.7741 N   0  0  0  0  0  0  0  0  0  0  0  0
   -9.1294  -32.0030  -36.6355 N   0  0  0  0  0  0  0  0  0  0  0  0
  -11.1622  -24.7776  -32.9770 H   0  0  0  0  0  0  0  0  0  0  0  0
  -11.7377  -33.6182  -31.5304 H   0  0  0  0  0  0  0  0  0  0  0  0
   -3.8833  -29.9393  -33.9603 H   0  0  0  0  0  0  0  0  0  0  0  0
  -11.9582  -26.7947  -31.7717 H   0  0  0  0  0  0  0  0  0  0  0  0
   -9.5120  -25.0024  -34.8165 H   0  0  0  0  0  0  0  0  0  0  0  0
   -9.7341  -32.4847  -30.6050 H   0  0  0  0  0  0  0  0  0  0  0  0
  -12.6236  -32.9541  -33.7510 H   0  0  0  0  0  0  0  0  0  0  0  0
   -5.2873  -30.0689  -31.9189 H   0  0  0  0  0  0  0  0  0  0  0  0
   -4.9513  -29.6929  -36.1866 H   0  0  0  0  0  0  0  0  0  0  0  0
  -11.1099  -29.0310  -32.3991 H   0  0  0  0  0  0  0  0  0  0  0  0
   -8.6578  -27.2340  -35.4515 H   0  0  0  0  0  0  0  0  0  0  0  0
   -8.6172  -30.6923  -31.8913 H   0  0  0  0  0  0  0  0  0  0  0  0
  -11.5140  -31.1632  -35.0450 H   0  0  0  0  0  0  0  0  0  0  0  0
   -7.7509  -29.9537  -32.0975 H   0  0  0  0  0  0  0  0  0  0  0  0
   -7.4138  -29.5767  -36.3757 H   0  0  0  0  0  0  0  0  0  0  0  0
   -7.0877  -32.7622  -34.0318 H   0  0  0  0  0  0  0  0  0  0  0  0
   -6.6652  -31.7857  -35.4502 H   0  0  0  0  0  0  0  0  0  0  0  0
   -7.9681  -31.2704  -34.3645 H   0  0  0  0  0  0  0  0  0  0  0  0
   -9.5438  -34.5843  -34.7127 H   0  0  0  0  0  0  0  0  0  0  0  0
  -10.6082  -33.2640  -35.1979 H   0  0  0  0  0  0  0  0  0  0  0  0
   -9.5676  -33.0804  -33.7743 H   0  0  0  0  0  0  0  0  0  0  0  0
   -8.5313  -34.5836  -37.0867 H   0  0  0  0  0  0  0  0  0  0  0  0
   -7.0267  -33.6465  -37.0991 H   0  0  0  0  0  0  0  0  0  0  0  0
   -7.3665  -34.7769  -35.7762 H   0  0  0  0  0  0  0  0  0  0  0  0
  1 25  2  0  0  0  0
  1 26  2  0  0  0  0
  2  5  2  0  0  0  0
  2  6  1  0  0  0  0
  3  7  2  0  0  0  0
  3  8  1  0  0  0  0
  4  9  2  0  0  0  0
  4 10  1  0  0  0  0
  5 11  1  0  0  0  0
  6 12  2  0  0  0  0
  7 13  1  0  0  0  0
  8 14  2  0  0  0  0
  9 15  1  0  0  0  0
 10 16  2  0  0  0  0
 11 17  2  0  0  0  0
 12 17  1  0  0  0  0
 13 18  2  0  0  0  0
 14 18  1  0  0  0  0
 15 19  2  0  0  0  0
 16 19  1  0  0  0  0
 17 23  1  0  0  0  0
 18 23  1  0  0  0  0
 19 23  1  0  0  0  0
 20 24  1  0  0  0  0
 21 24  1  0  0  0  0
 22 24  1  0  0  0  0
 23 25  1  0  0  0  0
 24 26  1  0  0  0  0
  2 27  1  0  0  0  0
  3 28  1  0  0  0  0
  4 29  1  0  0  0  0
  5 30  1  0  0  0  0
  6 31  1  0  0  0  0
  7 32  1  0  0  0  0
  8 33  1  0  0  0  0
  9 34  1  0  0  0  0
 10 35  1  0  0  0  0
 11 36  1  0  0  0  0
 12 37  1  0  0  0  0
 13 38  1  0  0  0  0
 14 39  1  0  0  0  0
 15 40  1  0  0  0  0
 16 41  1  0  0  0  0
 20 42  1  0  0  0  0
 20 43  1  0  0  0  0
 20 44  1  0  0  0  0
 21 45  1  0  0  0  0
 21 46  1  0  0  0  0
 21 47  1  0  0  0  0
 22 48  1  0  0  0  0
 22 49  1  0  0  0  0
 22 50  1  0  0  0  0
M  END
> <Name>
IA_159.cdx

> <SourceTag>
IA_159

> <Gold.Version>
5.2

> <Gold.Id.Protein>
6HGV|6HGV_protein|mol2

> <Gold.Goldscore.Fitness>
51.0282

> <Gold.Goldscore.Internal.Vdw>
-154.5172

> <Gold.Goldscore.Internal.Torsion>
-5.8611

> <Gold.Goldscore.External.Vdw>
39.8689

> <Gold.Goldscore.Internal.HBond>
0.0000

> <Gold.Goldscore.External.HBond>
0.1292

> <Gold.Goldscore.Internal.Correction>
-156.4575

> <Gold.Goldscore.Hbonds>
donor molecule, donor type, donor heavy atom, donor atom, acceptor molecule, acceptor atom, score
      P1  H  1256  3854       L1    25  0.06

> <Gold.Goldscore.Internal.Vdw.Weighted>
-154.5172

> <Gold.Goldscore.Internal.Torsion.Weighted>
-5.8611

> <Gold.Goldscore.External.Vdw.Weighted>
54.8198

> <Gold.Goldscore.Internal.HBond.Weighted>
0.0000

> <Gold.Goldscore.External.HBond.Weighted>
0.1292

> <Gold.Goldscore.Internal.Correction.Weighted>
-156.4575

> <Gold.Protein.RotatedTorsions>
[ 3781 1176 1175 1172 ] final -166.54 input   60.00 | X-H torsion
[ 3847 1247 1246 1244 ] final  -85.08 input   60.00 | X-H torsion
[ 4507 1931 1930 1928 ] final  117.61 input   60.00 | X-H torsion
[ 3677 1070 1069 1066 ] final  -44.66 input   60.00 | X-H torsion
[ 3525  925  924  922 ] final   53.71 input   59.99 | X-H torsion
[ 4531 1957 1955 1953 ] final   17.09 input   60.00 | X-H torsion

> <Gold.Protein.ActiveResidues>
 PHE267  PRO268  MET310  ASP335  TRP336  MET339  TYR343  THR360  PRO361  ILE363 
 PRO371  SER374  ILE375  ASN378  PHE381  TYR383  GLN384  PHE387  LEU408  LEU417 
 MET419  LEU428  TYR466  MET469  ASN472  ASP496  VAL498  LEU499  MET503  HIS524 
 TRP525 

> <Gold.Protein.RotatedAtoms>
   -2.8991  -29.8140  -30.8709 H   0  0  0  0  0  0  0  0  0  0  0  0  # atno 3525 bound_to 925 
  -12.5136  -23.7465  -31.0297 H   0  0  0  0  0  0  0  0  0  0  0  0  # atno 3677 bound_to 1070
   -9.2427  -36.4277  -33.0569 H   0  0  0  0  0  0  0  0  0  0  0  0  # atno 3781 bound_to 1176
  -15.9395  -27.5266  -37.4205 H   0  0  0  0  0  0  0  0  0  0  0  0  # atno 3847 bound_to 1247
  -12.4407  -23.9542  -39.3237 H   0  0  0  0  0  0  0  0  0  0  0  0  # atno 4507 bound_to 1931
   -3.0097  -32.7318  -36.6640 H   0  0  0  0  0  0  0  0  0  0  0  0  # atno 4531 bound_to 1957
  -10.4640  -37.4064  -32.6114 LP  0  0  0  0  0  0  0  0  0  0  0  0  # atno 5205 bound_to 1176
  -10.4096  -36.8022  -34.1275 LP  0  0  0  0  0  0  0  0  0  0  0  0  # atno 5206 bound_to 1176
  -14.4112  -27.7580  -37.9291 LP  0  0  0  0  0  0  0  0  0  0  0  0  # atno 5215 bound_to 1247
  -15.2084  -28.9564  -37.1578 LP  0  0  0  0  0  0  0  0  0  0  0  0  # atno 5216 bound_to 1247
  -13.2851  -25.3287  -39.1099 LP  0  0  0  0  0  0  0  0  0  0  0  0  # atno 5217 bound_to 1931
  -13.4734  -24.4556  -40.4769 LP  0  0  0  0  0  0  0  0  0  0  0  0  # atno 5218 bound_to 1931
  -11.1001  -22.9847  -31.2938 LP  0  0  0  0  0  0  0  0  0  0  0  0  # atno 5224 bound_to 1070
  -12.2364  -22.2972  -30.3436 LP  0  0  0  0  0  0  0  0  0  0  0  0  # atno 5225 bound_to 1070

$$$$
IA_127.cdx|SeH_inactivess_minimized|sdf|28|dock9
  -GOLD-   4172119 93D 1   1.00000     0.00000

 21 21  0  0  0  0  0  0  0  0  1 V2000
   -9.9881  -25.7528  -34.7722 C   0  0  0  0  0  0  0  0  0  0  0  0
  -10.7892  -27.3715  -36.3770 C   0  0  0  0  0  0  0  0  0  0  0  0
   -8.8666  -26.5464  -34.5316 C   0  0  0  0  0  0  0  0  0  0  0  0
   -9.6676  -28.1651  -36.1363 C   0  0  0  0  0  0  0  0  0  0  0  0
  -10.9495  -26.1653  -35.6949 C   0  0  0  0  0  0  0  0  0  0  0  0
   -8.7063  -27.7526  -35.2136 C   0  0  0  0  0  0  0  0  0  0  0  0
  -12.1187  -25.3380  -35.9464 C   0  0  0  0  0  0  0  0  0  0  0  0
  -14.9408  -24.8881  -37.9856 C   0  0  0  0  0  0  0  0  0  0  0  0
  -12.9854  -25.6096  -36.8817 N   0  0  0  0  0  0  0  0  0  0  0  0
  -15.9223  -23.9150  -37.9433 N   0  0  0  0  0  0  0  0  0  0  0  0
  -14.0099  -24.7322  -36.9722 N   0  0  0  0  0  0  0  0  0  0  0  0
  -14.9181  -25.7782  -38.8345 O   0  0  0  0  0  0  0  0  0  0  0  0
   -7.3222  -28.7309  -34.9176 Cl  0  0  0  0  0  0  0  0  0  0  0  0
  -10.1034  -24.8151  -34.2349 H   0  0  0  0  0  0  0  0  0  0  0  0
  -11.5318  -27.7027  -37.0984 H   0  0  0  0  0  0  0  0  0  0  0  0
   -8.1251  -26.2125  -33.8103 H   0  0  0  0  0  0  0  0  0  0  0  0
   -9.5564  -29.1026  -36.6750 H   0  0  0  0  0  0  0  0  0  0  0  0
  -12.2589  -24.4404  -35.3001 H   0  0  0  0  0  0  0  0  0  0  0  0
  -16.6778  -23.8924  -38.6200 H   0  0  0  0  0  0  0  0  0  0  0  0
  -15.9160  -23.1920  -37.2316 H   0  0  0  0  0  0  0  0  0  0  0  0
  -14.0711  -23.9794  -36.2943 H   0  0  0  0  0  0  0  0  0  0  0  0
  1  3  1  0  0  0  0
  1  5  2  0  0  0  0
  2  4  2  0  0  0  0
  2  5  1  0  0  0  0
  3  6  2  0  0  0  0
  4  6  1  0  0  0  0
  5  7  1  0  0  0  0
  6 13  1  0  0  0  0
  7  9  2  0  0  0  0
  8 10  1  0  0  0  0
  8 11  1  0  0  0  0
  8 12  2  0  0  0  0
  9 11  1  0  0  0  0
  1 14  1  0  0  0  0
  2 15  1  0  0  0  0
  3 16  1  0  0  0  0
  4 17  1  0  0  0  0
  7 18  1  0  0  0  0
 10 19  1  0  0  0  0
 10 20  1  0  0  0  0
 11 21  1  0  0  0  0
M  END
> <Name>
IA_127.cdx

> <SourceTag>
IA_127

> <Gold.Version>
5.2

> <Gold.Id.Protein>
6HGV|6HGV_protein|mol2

> <Gold.Goldscore.Fitness>
44.1459

> <Gold.Goldscore.Internal.Vdw>
-3.2396

> <Gold.Goldscore.Internal.Torsion>
-0.0945

> <Gold.Goldscore.External.Vdw>
28.5526

> <Gold.Goldscore.Internal.HBond>
0.0000

> <Gold.Goldscore.External.HBond>
5.8082

> <Gold.Goldscore.Internal.Correction>
-2.4121

> <Gold.Goldscore.Hbonds>
donor molecule, donor type, donor heavy atom, donor atom, acceptor molecule, acceptor atom, score
      L1  H    10    20       P1  2419  0.05
      L1  H    11    21       P1   853  0.95

> <Gold.Goldscore.Internal.Vdw.Weighted>
-3.2396

> <Gold.Goldscore.Internal.Torsion.Weighted>
-0.0945

> <Gold.Goldscore.External.Vdw.Weighted>
39.2598

> <Gold.Goldscore.Internal.HBond.Weighted>
0.0000

> <Gold.Goldscore.External.HBond.Weighted>
5.8082

> <Gold.Goldscore.Internal.Correction.Weighted>
-2.4121

> <Gold.Protein.RotatedTorsions>
[ 3781 1176 1175 1172 ] final  -98.00 input   60.00 | X-H torsion
[ 3847 1247 1246 1244 ] final  128.50 input   60.00 | X-H torsion
[ 4507 1931 1930 1928 ] final  102.19 input   60.00 | X-H torsion
[ 3677 1070 1069 1066 ] final -117.30 input   60.00 | X-H torsion
[ 3525  925  924  922 ] final -134.93 input   59.99 | X-H torsion
[ 4531 1957 1955 1953 ] final  -97.45 input   60.00 | X-H torsion

> <Gold.Protein.ActiveResidues>
 PHE267  PRO268  MET310  ASP335  TRP336  MET339  TYR343  THR360  PRO361  ILE363 
 PRO371  SER374  ILE375  ASN378  PHE381  TYR383  GLN384  PHE387  LEU408  LEU417 
 MET419  LEU428  TYR466  MET469  ASN472  ASP496  VAL498  LEU499  MET503  HIS524 
 TRP525 

> <Gold.Protein.RotatedAtoms>
   -2.7991  -30.0271  -29.0187 H   0  0  0  0  0  0  0  0  0  0  0  0  # atno 3525 bound_to 925 
  -11.4968  -23.6072  -31.4503 H   0  0  0  0  0  0  0  0  0  0  0  0  # atno 3677 bound_to 1070
   -9.7169  -36.3915  -33.9981 H   0  0  0  0  0  0  0  0  0  0  0  0  # atno 3781 bound_to 1176
  -14.3104  -28.1604  -37.8175 H   0  0  0  0  0  0  0  0  0  0  0  0  # atno 3847 bound_to 1247
  -12.4344  -24.1098  -39.1265 H   0  0  0  0  0  0  0  0  0  0  0  0  # atno 4507 bound_to 1931
   -1.4746  -32.5271  -36.9523 H   0  0  0  0  0  0  0  0  0  0  0  0  # atno 4531 bound_to 1957
   -9.5640  -36.8667  -32.4492 LP  0  0  0  0  0  0  0  0  0  0  0  0  # atno 5205 bound_to 1176
  -10.8321  -37.3783  -33.3419 LP  0  0  0  0  0  0  0  0  0  0  0  0  # atno 5206 bound_to 1176
  -15.6001  -28.8040  -37.0623 LP  0  0  0  0  0  0  0  0  0  0  0  0  # atno 5215 bound_to 1247
  -15.6602  -27.2722  -37.6248 LP  0  0  0  0  0  0  0  0  0  0  0  0  # atno 5216 bound_to 1247
  -13.4361  -25.3795  -39.3063 LP  0  0  0  0  0  0  0  0  0  0  0  0  # atno 5217 bound_to 1931
  -13.3287  -24.2481  -40.4790 LP  0  0  0  0  0  0  0  0  0  0  0  0  # atno 5218 bound_to 1931
  -11.5422  -22.2021  -30.6307 LP  0  0  0  0  0  0  0  0  0  0  0  0  # atno 5224 bound_to 1070
  -12.8182  -23.2200  -30.5831 LP  0  0  0  0  0  0  0  0  0  0  0  0  # atno 5225 bound_to 1070

$$$$
IA_162.cdx|SeH_inactivess_minimized|sdf|64|dock8
  -GOLD-   4172120 43D 1   1.00000     0.00000

 18 18  0  0  0  0  0  0  0  0  1 V2000
   -9.3630  -26.2231  -34.5156 C   0  0  0  0  0  0  0  0  0  0  0  0
  -10.1982  -25.1293  -34.2887 C   0  0  0  0  0  0  0  0  0  0  0  0
   -9.6135  -27.0818  -35.5859 C   0  0  0  0  0  0  0  0  0  0  0  0
  -11.2841  -24.8941  -35.1320 C   0  0  0  0  0  0  0  0  0  0  0  0
  -10.6994  -26.8467  -36.4293 C   0  0  0  0  0  0  0  0  0  0  0  0
  -11.5347  -25.7528  -36.2024 C   0  0  0  0  0  0  0  0  0  0  0  0
  -13.9849  -25.6550  -36.8554 C   0  0  0  0  0  0  0  0  0  0  0  0
  -14.8346  -25.3466  -37.8736 N   0  0  0  0  0  0  0  0  0  0  0  0
  -12.6208  -25.5174  -37.0460 N   0  0  0  0  0  0  0  0  0  0  0  0
  -14.5973  -26.1290  -35.3672 S   0  0  0  0  0  0  0  0  0  0  0  0
   -8.5169  -26.4061  -33.8596 H   0  0  0  0  0  0  0  0  0  0  0  0
  -10.0030  -24.4601  -33.4560 H   0  0  0  0  0  0  0  0  0  0  0  0
   -8.9623  -27.9329  -35.7629 H   0  0  0  0  0  0  0  0  0  0  0  0
  -11.9281  -24.0384  -34.9455 H   0  0  0  0  0  0  0  0  0  0  0  0
  -10.8849  -27.5226  -37.2604 H   0  0  0  0  0  0  0  0  0  0  0  0
  -15.8360  -25.3060  -37.7138 H   0  0  0  0  0  0  0  0  0  0  0  0
  -14.5209  -25.0166  -38.7780 H   0  0  0  0  0  0  0  0  0  0  0  0
  -12.3842  -25.1614  -37.9795 H   0  0  0  0  0  0  0  0  0  0  0  0
  1  2  2  0  0  0  0
  1  3  1  0  0  0  0
  2  4  1  0  0  0  0
  3  5  2  0  0  0  0
  4  6  2  0  0  0  0
  5  6  1  0  0  0  0
  6  9  1  0  0  0  0
  7  8  1  0  0  0  0
  7  9  1  0  0  0  0
  7 10  2  0  0  0  0
  1 11  1  0  0  0  0
  2 12  1  0  0  0  0
  3 13  1  0  0  0  0
  4 14  1  0  0  0  0
  5 15  1  0  0  0  0
  8 16  1  0  0  0  0
  8 17  1  0  0  0  0
  9 18  1  0  0  0  0
M  END
> <Name>
IA_162.cdx

> <SourceTag>
IA_162

> <Gold.Version>
5.2

> <Gold.Id.Protein>
6HGV|6HGV_protein|mol2

> <Gold.Goldscore.Fitness>
42.2065

> <Gold.Goldscore.Internal.Vdw>
1.1856

> <Gold.Goldscore.Internal.Torsion>
-5.8169

> <Gold.Goldscore.External.Vdw>
30.9683

> <Gold.Goldscore.Internal.HBond>
0.0000

> <Gold.Goldscore.External.HBond>
1.4366

> <Gold.Goldscore.Internal.Correction>
-2.8197

> <Gold.Goldscore.Hbonds>
donor molecule, donor type, donor heavy atom, donor atom, acceptor molecule, acceptor atom, score
      L1  H     8    17       P1  1931  0.18
      L1  H     9    18       P1  1931  0.53

> <Gold.Goldscore.Internal.Vdw.Weighted>
1.1856

> <Gold.Goldscore.Internal.Torsion.Weighted>
-5.8169

> <Gold.Goldscore.External.Vdw.Weighted>
42.5814

> <Gold.Goldscore.Internal.HBond.Weighted>
0.0000

> <Gold.Goldscore.External.HBond.Weighted>
1.4366

> <Gold.Goldscore.Internal.Correction.Weighted>
-2.8197

> <Gold.Protein.RotatedTorsions>
[ 3781 1176 1175 1172 ] final  -88.80 input   60.00 | X-H torsion
[ 3847 1247 1246 1244 ] final   54.94 input   60.00 | X-H torsion
[ 4507 1931 1930 1928 ] final  161.32 input   60.00 | X-H torsion
[ 3677 1070 1069 1066 ] final  -92.64 input   60.00 | X-H torsion
[ 3525  925  924  922 ] final -175.64 input   59.99 | X-H torsion
[ 4531 1957 1955 1953 ] final  -48.79 input   60.00 | X-H torsion

> <Gold.Protein.ActiveResidues>
 PHE267  PRO268  MET310  ASP335  TRP336  MET339  TYR343  THR360  PRO361  ILE363 
 PRO371  SER374  ILE375  ASN378  PHE381  TYR383  GLN384  PHE387  LEU408  LEU417 
 MET419  LEU428  TYR466  MET469  ASN472  ASP496  VAL498  LEU499  MET503  HIS524 
 TRP525 

> <Gold.Protein.RotatedAtoms>
   -2.2718  -30.2272  -29.3442 H   0  0  0  0  0  0  0  0  0  0  0  0  # atno 3525 bound_to 925 
  -11.8435  -23.7964  -31.3876 H   0  0  0  0  0  0  0  0  0  0  0  0  # atno 3677 bound_to 1070
   -9.8371  -36.4447  -34.0704 H   0  0  0  0  0  0  0  0  0  0  0  0  # atno 3781 bound_to 1176
  -14.9070  -28.9448  -37.2832 H   0  0  0  0  0  0  0  0  0  0  0  0  # atno 3847 bound_to 1247
  -12.6880  -23.7814  -39.9519 H   0  0  0  0  0  0  0  0  0  0  0  0  # atno 4507 bound_to 1931
   -2.1579  -32.1953  -36.8166 H   0  0  0  0  0  0  0  0  0  0  0  0  # atno 4531 bound_to 1957
   -9.4671  -36.7753  -32.5206 LP  0  0  0  0  0  0  0  0  0  0  0  0  # atno 5205 bound_to 1176
  -10.8079  -37.4162  -33.1976 LP  0  0  0  0  0  0  0  0  0  0  0  0  # atno 5206 bound_to 1176
  -16.0559  -27.7924  -37.2705 LP  0  0  0  0  0  0  0  0  0  0  0  0  # atno 5215 bound_to 1247
  -14.6035  -27.4939  -37.9547 LP  0  0  0  0  0  0  0  0  0  0  0  0  # atno 5216 bound_to 1247
  -12.8112  -24.9183  -38.7942 LP  0  0  0  0  0  0  0  0  0  0  0  0  # atno 5217 bound_to 1931
  -13.6983  -25.0400  -40.1598 LP  0  0  0  0  0  0  0  0  0  0  0  0  # atno 5218 bound_to 1931
  -11.2607  -22.3699  -30.8647 LP  0  0  0  0  0  0  0  0  0  0  0  0  # atno 5224 bound_to 1070
  -12.7506  -22.8616  -30.4122 LP  0  0  0  0  0  0  0  0  0  0  0  0  # atno 5225 bound_to 1070

$$$$
IA_90.cdx|SeH_inactivess_minimized|sdf|169|dock10
  -GOLD-   41821 8243D 1   1.00000     0.00000

 51 50  0  0  0  0  0  0  0  0  1 V2000
  -16.9642  -23.0677  -41.1791 C   0  0  0  0  0  0  0  0  0  0  0  0
  -16.8038  -22.7564  -39.8880 C   0  0  0  0  0  0  0  0  0  0  0  0
  -14.9538  -24.7427  -38.1166 C   0  0  0  0  0  0  0  0  0  0  0  0
   -3.1157  -31.7821  -32.7651 C   0  0  0  0  0  0  0  0  0  0  0  0
  -17.1200  -23.6851  -38.7618 C   0  0  0  0  0  0  0  0  0  0  0  0
   -3.5098  -32.1284  -34.1920 C   0  0  0  0  0  0  0  0  0  0  0  0
   -4.3408  -31.0143  -34.8302 C   0  0  0  0  0  0  0  0  0  0  0  0
   -5.7507  -30.9667  -34.2374 C   0  0  0  0  0  0  0  0  0  0  0  0
   -6.6147  -29.8398  -34.8111 C   0  0  0  0  0  0  0  0  0  0  0  0
   -8.0140  -29.7711  -34.1936 C   0  0  0  0  0  0  0  0  0  0  0  0
   -8.7335  -28.4825  -34.6014 C   0  0  0  0  0  0  0  0  0  0  0  0
  -10.0906  -28.2993  -33.9159 C   0  0  0  0  0  0  0  0  0  0  0  0
  -10.7111  -26.9208  -34.1534 C   0  0  0  0  0  0  0  0  0  0  0  0
  -11.2088  -26.7777  -35.5942 C   0  0  0  0  0  0  0  0  0  0  0  0
  -12.2104  -25.6258  -35.7228 C   0  0  0  0  0  0  0  0  0  0  0  0
  -12.7917  -25.4896  -37.1312 C   0  0  0  0  0  0  0  0  0  0  0  0
  -15.9566  -23.7986  -37.9128 N   0  0  0  0  0  0  0  0  0  0  0  0
  -13.9638  -24.6233  -37.1552 N   0  0  0  0  0  0  0  0  0  0  0  0
  -14.9505  -25.5689  -39.0284 O   0  0  0  0  0  0  0  0  0  0  0  0
  -16.7100  -22.3508  -41.9521 H   0  0  0  0  0  0  0  0  0  0  0  0
  -17.3494  -24.0337  -41.4866 H   0  0  0  0  0  0  0  0  0  0  0  0
  -16.4079  -21.7759  -39.6351 H   0  0  0  0  0  0  0  0  0  0  0  0
   -2.3829  -32.5028  -32.3887 H   0  0  0  0  0  0  0  0  0  0  0  0
   -2.6686  -30.7842  -32.7126 H   0  0  0  0  0  0  0  0  0  0  0  0
   -3.9861  -31.8043  -32.1016 H   0  0  0  0  0  0  0  0  0  0  0  0
  -17.3678  -24.6752  -39.1566 H   0  0  0  0  0  0  0  0  0  0  0  0
  -17.9640  -23.3361  -38.1583 H   0  0  0  0  0  0  0  0  0  0  0  0
   -4.0800  -33.0647  -34.1898 H   0  0  0  0  0  0  0  0  0  0  0  0
   -2.6034  -32.3018  -34.7838 H   0  0  0  0  0  0  0  0  0  0  0  0
   -4.3929  -31.1820  -35.9118 H   0  0  0  0  0  0  0  0  0  0  0  0
   -3.8431  -30.0498  -34.6739 H   0  0  0  0  0  0  0  0  0  0  0  0
   -6.2514  -31.9300  -34.3938 H   0  0  0  0  0  0  0  0  0  0  0  0
   -5.6779  -30.8217  -33.1523 H   0  0  0  0  0  0  0  0  0  0  0  0
   -6.6944  -29.9556  -35.8988 H   0  0  0  0  0  0  0  0  0  0  0  0
   -6.0978  -28.8887  -34.6321 H   0  0  0  0  0  0  0  0  0  0  0  0
   -8.6099  -30.6317  -34.5170 H   0  0  0  0  0  0  0  0  0  0  0  0
   -7.9267  -29.8231  -33.1029 H   0  0  0  0  0  0  0  0  0  0  0  0
   -8.0943  -27.6174  -34.3871 H   0  0  0  0  0  0  0  0  0  0  0  0
   -8.8977  -28.4926  -35.6862 H   0  0  0  0  0  0  0  0  0  0  0  0
   -9.9856  -28.4781  -32.8388 H   0  0  0  0  0  0  0  0  0  0  0  0
  -10.7723  -29.0693  -34.2982 H   0  0  0  0  0  0  0  0  0  0  0  0
   -9.9682  -26.1421  -33.9424 H   0  0  0  0  0  0  0  0  0  0  0  0
  -11.5516  -26.7638  -33.4681 H   0  0  0  0  0  0  0  0  0  0  0  0
  -10.3566  -26.5974  -36.2607 H   0  0  0  0  0  0  0  0  0  0  0  0
  -11.6745  -27.7186  -35.9103 H   0  0  0  0  0  0  0  0  0  0  0  0
  -13.0230  -25.7596  -34.9976 H   0  0  0  0  0  0  0  0  0  0  0  0
  -11.7106  -24.6840  -35.4638 H   0  0  0  0  0  0  0  0  0  0  0  0
  -12.0276  -25.0738  -37.7970 H   0  0  0  0  0  0  0  0  0  0  0  0
  -13.0641  -26.4763  -37.5209 H   0  0  0  0  0  0  0  0  0  0  0  0
  -15.8659  -23.1591  -37.1295 H   0  0  0  0  0  0  0  0  0  0  0  0
  -14.0168  -23.8883  -36.4663 H   0  0  0  0  0  0  0  0  0  0  0  0
  1  2  2  0  0  0  0
  2  5  1  0  0  0  0
  3 17  1  0  0  0  0
  3 18  1  0  0  0  0
  3 19  2  0  0  0  0
  4  6  1  0  0  0  0
  5 17  1  0  0  0  0
  6  7  1  0  0  0  0
  7  8  1  0  0  0  0
  8  9  1  0  0  0  0
  9 10  1  0  0  0  0
 10 11  1  0  0  0  0
 11 12  1  0  0  0  0
 12 13  1  0  0  0  0
 13 14  1  0  0  0  0
 14 15  1  0  0  0  0
 15 16  1  0  0  0  0
 16 18  1  0  0  0  0
  1 20  1  0  0  0  0
  1 21  1  0  0  0  0
  2 22  1  0  0  0  0
  4 23  1  0  0  0  0
  4 24  1  0  0  0  0
  4 25  1  0  0  0  0
  5 26  1  0  0  0  0
  5 27  1  0  0  0  0
  6 28  1  0  0  0  0
  6 29  1  0  0  0  0
  7 30  1  0  0  0  0
  7 31  1  0  0  0  0
  8 32  1  0  0  0  0
  8 33  1  0  0  0  0
  9 34  1  0  0  0  0
  9 35  1  0  0  0  0
 10 36  1  0  0  0  0
 10 37  1  0  0  0  0
 11 38  1  0  0  0  0
 11 39  1  0  0  0  0
 12 40  1  0  0  0  0
 12 41  1  0  0  0  0
 13 42  1  0  0  0  0
 13 43  1  0  0  0  0
 14 44  1  0  0  0  0
 14 45  1  0  0  0  0
 15 46  1  0  0  0  0
 15 47  1  0  0  0  0
 16 48  1  0  0  0  0
 16 49  1  0  0  0  0
 17 50  1  0  0  0  0
 18 51  1  0  0  0  0
M  END
> <Name>
IA_90.cdx

> <SourceTag>
IA_90

> <Gold.Version>
5.2

> <Gold.Id.Protein>
6HGV|6HGV_protein|mol2

> <Gold.Goldscore.Fitness>
61.1392

> <Gold.Goldscore.Internal.Vdw>
-6.8743

> <Gold.Goldscore.Internal.Torsion>
-3.6848

> <Gold.Goldscore.External.Vdw>
43.2505

> <Gold.Goldscore.Internal.HBond>
0.0000

> <Gold.Goldscore.External.HBond>
5.8561

> <Gold.Goldscore.Internal.Correction>
-6.3727

> <Gold.Goldscore.Hbonds>
donor molecule, donor type, donor heavy atom, donor atom, acceptor molecule, acceptor atom, score
      L1  H    17    50       P1  2419  0.04
      L1  H    18    51       P1   853  0.96

> <Gold.Goldscore.Internal.Vdw.Weighted>
-6.8743

> <Gold.Goldscore.Internal.Torsion.Weighted>
-3.6848

> <Gold.Goldscore.External.Vdw.Weighted>
59.4695

> <Gold.Goldscore.Internal.HBond.Weighted>
0.0000

> <Gold.Goldscore.External.HBond.Weighted>
5.8561

> <Gold.Goldscore.Internal.Correction.Weighted>
-6.3727

> <Gold.Protein.RotatedTorsions>
[ 3781 1176 1175 1172 ] final  -82.26 input   60.00 | X-H torsion
[ 3847 1247 1246 1244 ] final  -87.44 input   60.00 | X-H torsion
[ 4507 1931 1930 1928 ] final  159.90 input   60.00 | X-H torsion
[ 3677 1070 1069 1066 ] final  -92.29 input   60.00 | X-H torsion
[ 3525  925  924  922 ] final    2.85 input   59.99 | X-H torsion
[ 4531 1957 1955 1953 ] final   55.19 input   60.00 | X-H torsion

> <Gold.Protein.ActiveResidues>
 PHE267  PRO268  MET310  ASP335  TRP336  MET339  TYR343  THR360  PRO361  ILE363 
 PRO371  SER374  ILE375  ASN378  PHE381  TYR383  GLN384  PHE387  LEU408  LEU417 
 MET419  LEU428  TYR466  MET469  ASN472  ASP496  VAL498  LEU499  MET503  HIS524 
 TRP525 

> <Gold.Protein.RotatedAtoms>
   -3.5704  -29.5541  -30.5129 H   0  0  0  0  0  0  0  0  0  0  0  0  # atno 3525 bound_to 925 
  -11.8488  -23.7982  -31.3860 H   0  0  0  0  0  0  0  0  0  0  0  0  # atno 3677 bound_to 1070
   -9.9259  -36.4893  -34.1094 H   0  0  0  0  0  0  0  0  0  0  0  0  # atno 3781 bound_to 1176
  -15.9200  -27.4987  -37.4389 H   0  0  0  0  0  0  0  0  0  0  0  0  # atno 3847 bound_to 1247
  -12.6755  -23.7800  -39.9324 H   0  0  0  0  0  0  0  0  0  0  0  0  # atno 4507 bound_to 1931
   -3.0765  -33.3395  -36.6618 H   0  0  0  0  0  0  0  0  0  0  0  0  # atno 4531 bound_to 1957
   -9.4070  -36.7117  -32.5832 LP  0  0  0  0  0  0  0  0  0  0  0  0  # atno 5205 bound_to 1176
  -10.7785  -37.4348  -33.0958 LP  0  0  0  0  0  0  0  0  0  0  0  0  # atno 5206 bound_to 1176
  -14.3943  -27.7925  -37.9226 LP  0  0  0  0  0  0  0  0  0  0  0  0  # atno 5215 bound_to 1247
  -15.2449  -28.9500  -37.1459 LP  0  0  0  0  0  0  0  0  0  0  0  0  # atno 5216 bound_to 1247
  -12.8258  -24.9363  -38.7974 LP  0  0  0  0  0  0  0  0  0  0  0  0  # atno 5217 bound_to 1931
  -13.6963  -25.0235  -40.1763 LP  0  0  0  0  0  0  0  0  0  0  0  0  # atno 5218 bound_to 1931
  -11.2575  -22.3732  -30.8682 LP  0  0  0  0  0  0  0  0  0  0  0  0  # atno 5224 bound_to 1070
  -12.7486  -22.8566  -30.4103 LP  0  0  0  0  0  0  0  0  0  0  0  0  # atno 5225 bound_to 1070

$$$$
IA_150.cdx|SeH_inactivess_minimized|sdf|52|dock1
  -GOLD-   4172119473D 1   1.00000     0.00000

 30 31  0  0  0  0  0  0  0  0  1 V2000
   -9.1929  -25.8577  -34.5269 C   0  0  0  0  0  0  0  0  0  0  0  0
   -9.5851  -26.8608  -35.4132 C   0  0  0  0  0  0  0  0  0  0  0  0
  -10.1538  -25.0521  -33.9158 C   0  0  0  0  0  0  0  0  0  0  0  0
  -17.7395  -24.2504  -37.8548 C   0  0  0  0  0  0  0  0  0  0  0  0
  -11.8991  -26.2526  -35.0774 C   0  0  0  0  0  0  0  0  0  0  0  0
  -16.5766  -24.5270  -38.5737 C   0  0  0  0  0  0  0  0  0  0  0  0
  -10.9382  -27.0582  -35.6885 C   0  0  0  0  0  0  0  0  0  0  0  0
  -11.5069  -25.2496  -34.1910 C   0  0  0  0  0  0  0  0  0  0  0  0
  -16.5908  -24.4805  -39.9677 C   0  0  0  0  0  0  0  0  0  0  0  0
  -18.9307  -23.8806  -39.9239 C   0  0  0  0  0  0  0  0  0  0  0  0
  -18.9165  -23.9272  -38.5299 C   0  0  0  0  0  0  0  0  0  0  0  0
  -17.7679  -24.1573  -40.6428 C   0  0  0  0  0  0  0  0  0  0  0  0
  -13.3103  -26.4588  -35.3641 C   0  0  0  0  0  0  0  0  0  0  0  0
  -15.2519  -25.5903  -36.7035 C   0  0  0  0  0  0  0  0  0  0  0  0
  -15.3848  -24.8552  -37.8862 N   0  0  0  0  0  0  0  0  0  0  0  0
  -13.9125  -25.5592  -36.2641 N   0  0  0  0  0  0  0  0  0  0  0  0
  -13.9249  -27.4076  -34.8472 O   0  0  0  0  0  0  0  0  0  0  0  0
  -16.1449  -26.1855  -36.1058 O   0  0  0  0  0  0  0  0  0  0  0  0
  -11.3043  -28.0252  -36.5419 F   0  0  0  0  0  0  0  0  0  0  0  0
  -12.4221  -24.4698  -33.5982 F   0  0  0  0  0  0  0  0  0  0  0  0
  -15.4699  -24.7481  -40.6557 F   0  0  0  0  0  0  0  0  0  0  0  0
  -20.0635  -23.5696  -40.5731 F   0  0  0  0  0  0  0  0  0  0  0  0
  -20.3483  -23.5872  -37.6362 Cl  0  0  0  0  0  0  0  0  0  0  0  0
  -17.7850  -24.1001  -42.3641 Cl  0  0  0  0  0  0  0  0  0  0  0  0
   -8.1393  -25.7042  -34.3124 H   0  0  0  0  0  0  0  0  0  0  0  0
   -8.8371  -27.4879  -35.8893 H   0  0  0  0  0  0  0  0  0  0  0  0
   -9.8486  -24.2709  -33.2258 H   0  0  0  0  0  0  0  0  0  0  0  0
  -17.7249  -24.2874  -36.7672 H   0  0  0  0  0  0  0  0  0  0  0  0
  -14.5249  -24.5127  -38.3073 H   0  0  0  0  0  0  0  0  0  0  0  0
  -13.3259  -24.8164  -36.6322 H   0  0  0  0  0  0  0  0  0  0  0  0
  1  2  2  0  0  0  0
  1  3  1  0  0  0  0
  2  7  1  0  0  0  0
  3  8  2  0  0  0  0
  4  6  2  0  0  0  0
  4 11  1  0  0  0  0
  5  7  2  0  0  0  0
  5  8  1  0  0  0  0
  5 13  1  0  0  0  0
  6  9  1  0  0  0  0
  6 15  1  0  0  0  0
  7 19  1  0  0  0  0
  8 20  1  0  0  0  0
  9 12  2  0  0  0  0
  9 21  1  0  0  0  0
 10 11  2  0  0  0  0
 10 12  1  0  0  0  0
 10 22  1  0  0  0  0
 11 23  1  0  0  0  0
 12 24  1  0  0  0  0
 13 16  1  0  0  0  0
 13 17  2  0  0  0  0
 14 15  1  0  0  0  0
 14 16  1  0  0  0  0
 14 18  2  0  0  0  0
  1 25  1  0  0  0  0
  2 26  1  0  0  0  0
  3 27  1  0  0  0  0
  4 28  1  0  0  0  0
 15 29  1  0  0  0  0
 16 30  1  0  0  0  0
M  END
> <Name>
IA_150.cdx

> <SourceTag>
IA_150

> <Gold.Version>
5.2

> <Gold.Id.Protein>
6HGV|6HGV_protein|mol2

> <Gold.Goldscore.Fitness>
55.3374

> <Gold.Goldscore.Internal.Vdw>
-2.0789

> <Gold.Goldscore.Internal.Torsion>
-11.5146

> <Gold.Goldscore.External.Vdw>
41.9179

> <Gold.Goldscore.Internal.HBond>
0.0000

> <Gold.Goldscore.External.HBond>
0.6892

> <Gold.Goldscore.Internal.Correction>
-10.6045

> <Gold.Goldscore.Hbonds>
donor molecule, donor type, donor heavy atom, donor atom, acceptor molecule, acceptor atom, score
      L1  H    15    29       P1  1931  0.34

> <Gold.Goldscore.Internal.Vdw.Weighted>
-2.0789

> <Gold.Goldscore.Internal.Torsion.Weighted>
-11.5146

> <Gold.Goldscore.External.Vdw.Weighted>
57.6372

> <Gold.Goldscore.Internal.HBond.Weighted>
0.0000

> <Gold.Goldscore.External.HBond.Weighted>
0.6892

> <Gold.Goldscore.Internal.Correction.Weighted>
-10.6045

> <Gold.Protein.RotatedTorsions>
[ 3781 1176 1175 1172 ] final    4.17 input   60.00 | X-H torsion
[ 3847 1247 1246 1244 ] final  131.94 input   60.00 | X-H torsion
[ 4507 1931 1930 1928 ] final  101.08 input   60.00 | X-H torsion
[ 3677 1070 1069 1066 ] final -173.30 input   60.00 | X-H torsion
[ 3525  925  924  922 ] final  -48.47 input   59.99 | X-H torsion
[ 4531 1957 1955 1953 ] final  -73.42 input   60.00 | X-H torsion

> <Gold.Protein.ActiveResidues>
 PHE267  PRO268  MET310  ASP335  TRP336  MET339  TYR343  THR360  PRO361  ILE363 
 PRO371  SER374  ILE375  ASN378  PHE381  TYR383  GLN384  PHE387  LEU408  LEU417 
 MET419  LEU428  TYR466  MET469  ASN472  ASP496  VAL498  LEU499  MET503  HIS524 
 TRP525 

> <Gold.Protein.RotatedAtoms>
   -3.7561  -29.5454  -29.7237 H   0  0  0  0  0  0  0  0  0  0  0  0  # atno 3525 bound_to 925 
  -11.0904  -22.8611  -31.2252 H   0  0  0  0  0  0  0  0  0  0  0  0  # atno 3677 bound_to 1070
  -10.8140  -37.2684  -33.6111 H   0  0  0  0  0  0  0  0  0  0  0  0  # atno 3781 bound_to 1176
  -14.3140  -28.1075  -37.8363 H   0  0  0  0  0  0  0  0  0  0  0  0  # atno 3847 bound_to 1247
  -12.4357  -24.1224  -39.1136 H   0  0  0  0  0  0  0  0  0  0  0  0  # atno 4507 bound_to 1931
   -1.7766  -32.2883  -36.8908 H   0  0  0  0  0  0  0  0  0  0  0  0  # atno 4531 bound_to 1957
   -9.5071  -36.3193  -33.8092 LP  0  0  0  0  0  0  0  0  0  0  0  0  # atno 5205 bound_to 1176
   -9.7841  -37.0426  -32.3716 LP  0  0  0  0  0  0  0  0  0  0  0  0  # atno 5206 bound_to 1176
  -15.5524  -28.8335  -37.0698 LP  0  0  0  0  0  0  0  0  0  0  0  0  # atno 5215 bound_to 1247
  -15.7042  -27.2959  -37.5984 LP  0  0  0  0  0  0  0  0  0  0  0  0  # atno 5216 bound_to 1247
  -13.4461  -25.3810  -39.3216 LP  0  0  0  0  0  0  0  0  0  0  0  0  # atno 5217 bound_to 1931
  -13.3174  -24.2340  -40.4768 LP  0  0  0  0  0  0  0  0  0  0  0  0  # atno 5218 bound_to 1931
  -12.3561  -22.3717  -30.3271 LP  0  0  0  0  0  0  0  0  0  0  0  0  # atno 5224 bound_to 1070
  -12.4136  -23.8018  -31.1133 LP  0  0  0  0  0  0  0  0  0  0  0  0  # atno 5225 bound_to 1070

$$$$
IA_98.cdx|SeH_inactivess_minimized|sdf|177|dock6
  -GOLD-   41821 8473D 1   1.00000     0.00000

 50 49  0  0  0  0  0  0  0  0  1 V2000
   -5.5249  -28.8604  -33.3687 C   0  0  0  0  0  0  0  0  0  0  0  0
  -20.3312  -23.7758  -39.4213 C   0  0  0  0  0  0  0  0  0  0  0  0
  -19.0894  -23.8505  -38.5458 C   0  0  0  0  0  0  0  0  0  0  0  0
  -19.1038  -25.0999  -37.6643 C   0  0  0  0  0  0  0  0  0  0  0  0
  -17.9614  -25.1394  -36.6453 C   0  0  0  0  0  0  0  0  0  0  0  0
  -16.5731  -25.1677  -37.2882 C   0  0  0  0  0  0  0  0  0  0  0  0
  -15.4950  -25.5261  -36.2626 C   0  0  0  0  0  0  0  0  0  0  0  0
  -14.0918  -25.3131  -36.8330 C   0  0  0  0  0  0  0  0  0  0  0  0
  -13.0166  -25.8168  -35.8685 C   0  0  0  0  0  0  0  0  0  0  0  0
  -11.6165  -25.4210  -36.3403 C   0  0  0  0  0  0  0  0  0  0  0  0
  -10.5387  -25.9613  -35.3990 C   0  0  0  0  0  0  0  0  0  0  0  0
  -10.2571  -27.4417  -35.6665 C   0  0  0  0  0  0  0  0  0  0  0  0
   -9.0763  -27.9405  -34.8305 C   0  0  0  0  0  0  0  0  0  0  0  0
   -8.7687  -29.4270  -35.0365 C   0  0  0  0  0  0  0  0  0  0  0  0
   -7.6351  -29.9382  -34.1482 C   0  0  0  0  0  0  0  0  0  0  0  0
   -4.4680  -28.1036  -33.8420 N   0  0  0  0  0  0  0  0  0  0  0  0
   -6.4261  -29.1526  -34.3727 N   0  0  0  0  0  0  0  0  0  0  0  0
   -5.6196  -29.2117  -32.1940 O   0  0  0  0  0  0  0  0  0  0  0  0
  -21.2279  -23.6859  -38.8002 H   0  0  0  0  0  0  0  0  0  0  0  0
  -20.2901  -22.9073  -40.0865 H   0  0  0  0  0  0  0  0  0  0  0  0
  -20.4330  -24.6757  -40.0361 H   0  0  0  0  0  0  0  0  0  0  0  0
  -18.2056  -23.8504  -39.1925 H   0  0  0  0  0  0  0  0  0  0  0  0
  -19.0368  -22.9526  -37.9196 H   0  0  0  0  0  0  0  0  0  0  0  0
  -20.0526  -25.1391  -37.1147 H   0  0  0  0  0  0  0  0  0  0  0  0
  -19.0667  -25.9978  -38.2933 H   0  0  0  0  0  0  0  0  0  0  0  0
  -18.0873  -26.0367  -36.0264 H   0  0  0  0  0  0  0  0  0  0  0  0
  -18.0402  -24.2778  -35.9710 H   0  0  0  0  0  0  0  0  0  0  0  0
  -16.3406  -24.1896  -37.7239 H   0  0  0  0  0  0  0  0  0  0  0  0
  -16.5605  -25.8997  -38.1047 H   0  0  0  0  0  0  0  0  0  0  0  0
  -15.6239  -24.9101  -35.3643 H   0  0  0  0  0  0  0  0  0  0  0  0
  -15.6116  -26.5729  -35.9568 H   0  0  0  0  0  0  0  0  0  0  0  0
  -14.0010  -25.8391  -37.7913 H   0  0  0  0  0  0  0  0  0  0  0  0
  -13.9347  -24.2463  -37.0338 H   0  0  0  0  0  0  0  0  0  0  0  0
  -13.1976  -25.4041  -34.8686 H   0  0  0  0  0  0  0  0  0  0  0  0
  -13.0812  -26.9084  -35.7844 H   0  0  0  0  0  0  0  0  0  0  0  0
  -11.5425  -24.3280  -36.3944 H   0  0  0  0  0  0  0  0  0  0  0  0
  -11.4472  -25.8071  -37.3528 H   0  0  0  0  0  0  0  0  0  0  0  0
   -9.6160  -25.3825  -35.5273 H   0  0  0  0  0  0  0  0  0  0  0  0
  -10.8604  -25.8311  -34.3586 H   0  0  0  0  0  0  0  0  0  0  0  0
  -10.0410  -27.5872  -36.7316 H   0  0  0  0  0  0  0  0  0  0  0  0
  -11.1553  -28.0242  -35.4337 H   0  0  0  0  0  0  0  0  0  0  0  0
   -8.1805  -27.3667  -35.0991 H   0  0  0  0  0  0  0  0  0  0  0  0
   -9.2670  -27.7481  -33.7675 H   0  0  0  0  0  0  0  0  0  0  0  0
   -8.4976  -29.5732  -36.0903 H   0  0  0  0  0  0  0  0  0  0  0  0
   -9.6777  -30.0164  -34.8609 H   0  0  0  0  0  0  0  0  0  0  0  0
   -7.4125  -30.9861  -34.3705 H   0  0  0  0  0  0  0  0  0  0  0  0
   -7.9202  -29.8714  -33.0927 H   0  0  0  0  0  0  0  0  0  0  0  0
   -3.7138  -27.8026  -33.2341 H   0  0  0  0  0  0  0  0  0  0  0  0
   -4.4152  -27.8273  -34.8167 H   0  0  0  0  0  0  0  0  0  0  0  0
   -6.2408  -28.8081  -35.3022 H   0  0  0  0  0  0  0  0  0  0  0  0
  1 16  1  0  0  0  0
  1 17  1  0  0  0  0
  1 18  2  0  0  0  0
  2  3  1  0  0  0  0
  3  4  1  0  0  0  0
  4  5  1  0  0  0  0
  5  6  1  0  0  0  0
  6  7  1  0  0  0  0
  7  8  1  0  0  0  0
  8  9  1  0  0  0  0
  9 10  1  0  0  0  0
 10 11  1  0  0  0  0
 11 12  1  0  0  0  0
 12 13  1  0  0  0  0
 13 14  1  0  0  0  0
 14 15  1  0  0  0  0
 15 17  1  0  0  0  0
  2 19  1  0  0  0  0
  2 20  1  0  0  0  0
  2 21  1  0  0  0  0
  3 22  1  0  0  0  0
  3 23  1  0  0  0  0
  4 24  1  0  0  0  0
  4 25  1  0  0  0  0
  5 26  1  0  0  0  0
  5 27  1  0  0  0  0
  6 28  1  0  0  0  0
  6 29  1  0  0  0  0
  7 30  1  0  0  0  0
  7 31  1  0  0  0  0
  8 32  1  0  0  0  0
  8 33  1  0  0  0  0
  9 34  1  0  0  0  0
  9 35  1  0  0  0  0
 10 36  1  0  0  0  0
 10 37  1  0  0  0  0
 11 38  1  0  0  0  0
 11 39  1  0  0  0  0
 12 40  1  0  0  0  0
 12 41  1  0  0  0  0
 13 42  1  0  0  0  0
 13 43  1  0  0  0  0
 14 44  1  0  0  0  0
 14 45  1  0  0  0  0
 15 46  1  0  0  0  0
 15 47  1  0  0  0  0
 16 48  1  0  0  0  0
 16 49  1  0  0  0  0
 17 50  1  0  0  0  0
M  END
> <Name>
IA_98.cdx

> <SourceTag>
IA_98

> <Gold.Version>
5.2

> <Gold.Id.Protein>
6HGV|6HGV_protein|mol2

> <Gold.Goldscore.Fitness>
60.2869

> <Gold.Goldscore.Internal.Vdw>
-6.0654

> <Gold.Goldscore.Internal.Torsion>
-2.3878

> <Gold.Goldscore.External.Vdw>
44.8649

> <Gold.Goldscore.Internal.HBond>
0.0000

> <Gold.Goldscore.External.HBond>
1.2235

> <Gold.Goldscore.Internal.Correction>
-5.8274

> <Gold.Goldscore.Hbonds>
donor molecule, donor type, donor heavy atom, donor atom, acceptor molecule, acceptor atom, score
      P1  H   925  3525       L1    18  0.61

> <Gold.Goldscore.Internal.Vdw.Weighted>
-6.0654

> <Gold.Goldscore.Internal.Torsion.Weighted>
-2.3878

> <Gold.Goldscore.External.Vdw.Weighted>
61.6893

> <Gold.Goldscore.Internal.HBond.Weighted>
0.0000

> <Gold.Goldscore.External.HBond.Weighted>
1.2235

> <Gold.Goldscore.Internal.Correction.Weighted>
-5.8274

> <Gold.Protein.RotatedTorsions>
[ 3781 1176 1175 1172 ] final -145.72 input   60.00 | X-H torsion
[ 3847 1247 1246 1244 ] final  111.35 input   60.00 | X-H torsion
[ 4507 1931 1930 1928 ] final   95.24 input   60.00 | X-H torsion
[ 3677 1070 1069 1066 ] final  -99.35 input   60.00 | X-H torsion
[ 3525  925  924  922 ] final   -0.55 input   59.99 | X-H torsion
[ 4531 1957 1955 1953 ] final   24.66 input   60.00 | X-H torsion

> <Gold.Protein.ActiveResidues>
 PHE267  PRO268  MET310  ASP335  TRP336  MET339  TYR343  THR360  PRO361  ILE363 
 PRO371  SER374  ILE375  ASN378  PHE381  TYR383  GLN384  PHE387  LEU408  LEU417 
 MET419  LEU428  TYR466  MET469  ASN472  ASP496  VAL498  LEU499  MET503  HIS524 
 TRP525 

> <Gold.Protein.RotatedAtoms>
   -3.6022  -29.5444  -30.4683 H   0  0  0  0  0  0  0  0  0  0  0  0  # atno 3525 bound_to 925 
  -11.7444  -23.7581  -31.4145 H   0  0  0  0  0  0  0  0  0  0  0  0  # atno 3677 bound_to 1070
   -9.2834  -36.3340  -33.3795 H   0  0  0  0  0  0  0  0  0  0  0  0  # atno 3781 bound_to 1176
  -14.3393  -28.4158  -37.7084 H   0  0  0  0  0  0  0  0  0  0  0  0  # atno 3847 bound_to 1247
  -12.4465  -24.1918  -39.0489 H   0  0  0  0  0  0  0  0  0  0  0  0  # atno 4507 bound_to 1931
   -3.0545  -32.8469  -36.6575 H   0  0  0  0  0  0  0  0  0  0  0  0  # atno 4531 bound_to 1957
  -10.1958  -37.2939  -32.4339 LP  0  0  0  0  0  0  0  0  0  0  0  0  # atno 5205 bound_to 1176
  -10.6368  -37.0090  -33.9801 LP  0  0  0  0  0  0  0  0  0  0  0  0  # atno 5206 bound_to 1176
  -15.8128  -28.6206  -37.0490 LP  0  0  0  0  0  0  0  0  0  0  0  0  # atno 5215 bound_to 1247
  -15.4183  -27.1984  -37.7479 LP  0  0  0  0  0  0  0  0  0  0  0  0  # atno 5216 bound_to 1247
  -13.4961  -25.3836  -39.4037 LP  0  0  0  0  0  0  0  0  0  0  0  0  # atno 5217 bound_to 1931
  -13.2565  -24.1615  -40.4599 LP  0  0  0  0  0  0  0  0  0  0  0  0  # atno 5218 bound_to 1931
  -11.3266  -22.3109  -30.7987 LP  0  0  0  0  0  0  0  0  0  0  0  0  # atno 5224 bound_to 1070
  -12.7845  -22.9592  -30.4511 LP  0  0  0  0  0  0  0  0  0  0  0  0  # atno 5225 bound_to 1070

$$$$
IA_48.cdx|SeH_inactivess_minimized|sdf|133|dock6
  -GOLD-   4172121493D 1   1.00000     0.00000

 28 29  0  0  0  0  0  0  0  0  1 V2000
   -8.8387  -27.7603  -35.1927 C   0  0  0  0  0  0  0  0  0  0  0  0
  -18.2425  -25.6044  -36.4568 C   0  0  0  0  0  0  0  0  0  0  0  0
   -8.9376  -26.5247  -34.5532 C   0  0  0  0  0  0  0  0  0  0  0  0
   -9.7622  -28.1122  -36.1771 C   0  0  0  0  0  0  0  0  0  0  0  0
  -17.7451  -25.6043  -37.7599 C   0  0  0  0  0  0  0  0  0  0  0  0
  -17.3817  -25.3844  -35.3815 C   0  0  0  0  0  0  0  0  0  0  0  0
   -9.9602  -25.6409  -34.8980 C   0  0  0  0  0  0  0  0  0  0  0  0
  -10.7848  -27.2286  -36.5218 C   0  0  0  0  0  0  0  0  0  0  0  0
  -16.3867  -25.3842  -37.9879 C   0  0  0  0  0  0  0  0  0  0  0  0
  -16.0232  -25.1643  -35.6095 C   0  0  0  0  0  0  0  0  0  0  0  0
  -10.8839  -25.9928  -35.8823 C   0  0  0  0  0  0  0  0  0  0  0  0
  -15.5257  -25.1642  -36.9126 C   0  0  0  0  0  0  0  0  0  0  0  0
  -13.3467  -25.7009  -36.3017 C   0  0  0  0  0  0  0  0  0  0  0  0
  -11.9777  -25.0484  -36.2513 C   0  0  0  0  0  0  0  0  0  0  0  0
  -13.6633  -26.7190  -35.7006 O   0  0  0  0  0  0  0  0  0  0  0  0
  -14.1651  -24.9454  -37.1402 O   0  0  0  0  0  0  0  0  0  0  0  0
   -8.0415  -28.4478  -34.9251 H   0  0  0  0  0  0  0  0  0  0  0  0
  -19.3003  -25.7752  -36.2790 H   0  0  0  0  0  0  0  0  0  0  0  0
   -8.2180  -26.2500  -33.7877 H   0  0  0  0  0  0  0  0  0  0  0  0
   -9.6848  -29.0738  -36.6759 H   0  0  0  0  0  0  0  0  0  0  0  0
  -18.4153  -25.7758  -38.5973 H   0  0  0  0  0  0  0  0  0  0  0  0
  -17.7698  -25.3846  -34.3671 H   0  0  0  0  0  0  0  0  0  0  0  0
  -10.0297  -24.6804  -34.3943 H   0  0  0  0  0  0  0  0  0  0  0  0
  -11.5000  -27.5113  -37.2898 H   0  0  0  0  0  0  0  0  0  0  0  0
  -16.0053  -25.3867  -39.0052 H   0  0  0  0  0  0  0  0  0  0  0  0
  -15.3570  -24.9953  -34.7679 H   0  0  0  0  0  0  0  0  0  0  0  0
  -12.0236  -24.2188  -35.5282 H   0  0  0  0  0  0  0  0  0  0  0  0
  -11.7779  -24.6038  -37.2390 H   0  0  0  0  0  0  0  0  0  0  0  0
  1  3  1  0  0  0  0
  1  4  2  0  0  0  0
  2  5  2  0  0  0  0
  2  6  1  0  0  0  0
  3  7  2  0  0  0  0
  4  8  1  0  0  0  0
  5  9  1  0  0  0  0
  6 10  2  0  0  0  0
  7 11  1  0  0  0  0
  8 11  2  0  0  0  0
  9 12  2  0  0  0  0
 10 12  1  0  0  0  0
 11 14  1  0  0  0  0
 12 16  1  0  0  0  0
 13 14  1  0  0  0  0
 13 15  2  0  0  0  0
 13 16  1  0  0  0  0
  1 17  1  0  0  0  0
  2 18  1  0  0  0  0
  3 19  1  0  0  0  0
  4 20  1  0  0  0  0
  5 21  1  0  0  0  0
  6 22  1  0  0  0  0
  7 23  1  0  0  0  0
  8 24  1  0  0  0  0
  9 25  1  0  0  0  0
 10 26  1  0  0  0  0
 14 27  1  0  0  0  0
 14 28  1  0  0  0  0
M  END
> <Name>
IA_48.cdx

> <SourceTag>
IA_48

> <Gold.Version>
5.2

> <Gold.Id.Protein>
6HGV|6HGV_protein|mol2

> <Gold.Goldscore.Fitness>
53.0729

> <Gold.Goldscore.Internal.Vdw>
-0.3970

> <Gold.Goldscore.Internal.Torsion>
-3.7437

> <Gold.Goldscore.External.Vdw>
39.8289

> <Gold.Goldscore.Internal.HBond>
0.0000

> <Gold.Goldscore.External.HBond>
0.4255

> <Gold.Goldscore.Internal.Correction>
-2.0233

> <Gold.Goldscore.Hbonds>
donor molecule, donor type, donor heavy atom, donor atom, acceptor molecule, acceptor atom, score
      P1  H  1931  4507       L1    16  0.21

> <Gold.Goldscore.Internal.Vdw.Weighted>
-0.3970

> <Gold.Goldscore.Internal.Torsion.Weighted>
-3.7437

> <Gold.Goldscore.External.Vdw.Weighted>
54.7647

> <Gold.Goldscore.Internal.HBond.Weighted>
0.0000

> <Gold.Goldscore.External.HBond.Weighted>
0.4255

> <Gold.Goldscore.Internal.Correction.Weighted>
-2.0233

> <Gold.Protein.RotatedTorsions>
[ 3781 1176 1175 1172 ] final  138.24 input   60.00 | X-H torsion
[ 3847 1247 1246 1244 ] final  163.83 input   60.00 | X-H torsion
[ 4507 1931 1930 1928 ] final   12.09 input   60.00 | X-H torsion
[ 3677 1070 1069 1066 ] final -117.83 input   60.00 | X-H torsion
[ 3525  925  924  922 ] final -113.06 input   59.99 | X-H torsion
[ 4531 1957 1955 1953 ] final  -48.22 input   60.00 | X-H torsion

> <Gold.Protein.ActiveResidues>
 PHE267  PRO268  MET310  ASP335  TRP336  MET339  TYR343  THR360  PRO361  ILE363 
 PRO371  SER374  ILE375  ASN378  PHE381  TYR383  GLN384  PHE387  LEU408  LEU417 
 MET419  LEU428  TYR466  MET469  ASN472  ASP496  VAL498  LEU499  MET503  HIS524 
 TRP525 

> <Gold.Protein.RotatedAtoms>
   -3.1245  -29.8845  -29.0260 H   0  0  0  0  0  0  0  0  0  0  0  0  # atno 3525 bound_to 925 
  -11.4902  -23.6019  -31.4505 H   0  0  0  0  0  0  0  0  0  0  0  0  # atno 3677 bound_to 1070
   -9.6091  -36.9060  -32.4325 H   0  0  0  0  0  0  0  0  0  0  0  0  # atno 3781 bound_to 1176
  -14.4920  -27.6376  -37.9462 H   0  0  0  0  0  0  0  0  0  0  0  0  # atno 3847 bound_to 1247
  -13.1265  -25.2283  -38.9654 H   0  0  0  0  0  0  0  0  0  0  0  0  # atno 4507 bound_to 1931
   -2.1670  -32.1952  -36.8149 H   0  0  0  0  0  0  0  0  0  0  0  0  # atno 4531 bound_to 1957
  -10.8361  -37.3590  -33.4006 LP  0  0  0  0  0  0  0  0  0  0  0  0  # atno 5205 bound_to 1176
   -9.6685  -36.3679  -33.9671 LP  0  0  0  0  0  0  0  0  0  0  0  0  # atno 5206 bound_to 1176
  -15.0712  -28.9669  -37.2076 LP  0  0  0  0  0  0  0  0  0  0  0  0  # atno 5215 bound_to 1247
  -16.0061  -27.6357  -37.3499 LP  0  0  0  0  0  0  0  0  0  0  0  0  # atno 5216 bound_to 1247
  -13.5827  -24.6587  -40.4198 LP  0  0  0  0  0  0  0  0  0  0  0  0  # atno 5217 bound_to 1931
  -12.4852  -23.8425  -39.5278 LP  0  0  0  0  0  0  0  0  0  0  0  0  # atno 5218 bound_to 1931
  -11.5491  -22.2001  -30.6262 LP  0  0  0  0  0  0  0  0  0  0  0  0  # atno 5224 bound_to 1070
  -12.8179  -23.2274  -30.5874 LP  0  0  0  0  0  0  0  0  0  0  0  0  # atno 5225 bound_to 1070

$$$$
IA_155.cdx|SeH_inactivess_minimized|sdf|56|dock6
  -GOLD-   4172119513D 1   1.00000     0.00000

 17 16  0  0  0  0  0  0  0  0  1 V2000
  -11.8029  -24.9240  -36.0198 C   0  0  0  0  0  0  0  0  0  0  0  0
  -14.4532  -26.4389  -35.6444 C   0  0  0  0  0  0  0  0  0  0  0  0
   -9.6261  -26.1522  -34.3038 C   0  0  0  0  0  0  0  0  0  0  0  0
  -13.1270  -26.6843  -36.3342 C   0  0  0  0  0  0  0  0  0  0  0  0
  -10.7847  -25.2069  -34.0615 C   0  0  0  0  0  0  0  0  0  0  0  0
  -12.5697  -25.4017  -36.7702 N   0  0  0  0  0  0  0  0  0  0  0  0
  -11.0340  -24.4330  -35.2801 N   0  0  0  0  0  0  0  0  0  0  0  0
  -14.8615  -27.3759  -35.2540 H   0  0  0  0  0  0  0  0  0  0  0  0
  -14.3366  -25.7398  -34.8096 H   0  0  0  0  0  0  0  0  0  0  0  0
  -15.1820  -26.0088  -36.3397 H   0  0  0  0  0  0  0  0  0  0  0  0
   -9.8150  -26.7723  -35.1854 H   0  0  0  0  0  0  0  0  0  0  0  0
   -8.6959  -25.5976  -34.4663 H   0  0  0  0  0  0  0  0  0  0  0  0
   -9.4740  -26.8131  -33.4440 H   0  0  0  0  0  0  0  0  0  0  0  0
  -13.2652  -27.3356  -37.2027 H   0  0  0  0  0  0  0  0  0  0  0  0
  -12.4265  -27.1715  -35.6487 H   0  0  0  0  0  0  0  0  0  0  0  0
  -10.5526  -24.5249  -33.2378 H   0  0  0  0  0  0  0  0  0  0  0  0
  -11.6854  -25.7696  -33.7969 H   0  0  0  0  0  0  0  0  0  0  0  0
  1  6  2  0  0  0  0
  1  7  2  0  0  0  0
  2  4  1  0  0  0  0
  3  5  1  0  0  0  0
  4  6  1  0  0  0  0
  5  7  1  0  0  0  0
  2  8  1  0  0  0  0
  2  9  1  0  0  0  0
  2 10  1  0  0  0  0
  3 11  1  0  0  0  0
  3 12  1  0  0  0  0
  3 13  1  0  0  0  0
  4 14  1  0  0  0  0
  4 15  1  0  0  0  0
  5 16  1  0  0  0  0
  5 17  1  0  0  0  0
M  END
> <Name>
IA_155.cdx

> <SourceTag>
IA_155

> <Gold.Version>
5.2

> <Gold.Id.Protein>
6HGV|6HGV_protein|mol2

> <Gold.Goldscore.Fitness>
32.7341

> <Gold.Goldscore.Internal.Vdw>
-2.8503

> <Gold.Goldscore.Internal.Torsion>
-1.1123

> <Gold.Goldscore.External.Vdw>
22.5463

> <Gold.Goldscore.Internal.HBond>
0.0000

> <Gold.Goldscore.External.HBond>
1.9387

> <Gold.Goldscore.Internal.Correction>
-3.7569

> <Gold.Goldscore.Hbonds>
donor molecule, donor type, donor heavy atom, donor atom, acceptor molecule, acceptor atom, score
      P1  H  1931  4507       L1     6  0.97

> <Gold.Goldscore.Internal.Vdw.Weighted>
-2.8503

> <Gold.Goldscore.Internal.Torsion.Weighted>
-1.1123

> <Gold.Goldscore.External.Vdw.Weighted>
31.0011

> <Gold.Goldscore.Internal.HBond.Weighted>
0.0000

> <Gold.Goldscore.External.HBond.Weighted>
1.9387

> <Gold.Goldscore.Internal.Correction.Weighted>
-3.7569

> <Gold.Protein.RotatedTorsions>
[ 3781 1176 1175 1172 ] final  164.76 input   60.00 | X-H torsion
[ 3847 1247 1246 1244 ] final    9.24 input   60.00 | X-H torsion
[ 4507 1931 1930 1928 ] final   36.29 input   60.00 | X-H torsion
[ 3677 1070 1069 1066 ] final  -89.87 input   60.00 | X-H torsion
[ 3525  925  924  922 ] final  -82.61 input   59.99 | X-H torsion
[ 4531 1957 1955 1953 ] final  101.50 input   60.00 | X-H torsion

> <Gold.Protein.ActiveResidues>
 PHE267  PRO268  MET310  ASP335  TRP336  MET339  TYR343  THR360  PRO361  ILE363 
 PRO371  SER374  ILE375  ASN378  PHE381  TYR383  GLN384  PHE387  LEU408  LEU417 
 MET419  LEU428  TYR466  MET469  ASN472  ASP496  VAL498  LEU499  MET503  HIS524 
 TRP525 

> <Gold.Protein.RotatedAtoms>
   -3.5174  -29.6927  -29.2511 H   0  0  0  0  0  0  0  0  0  0  0  0  # atno 3525 bound_to 925 
  -11.8849  -23.8091  -31.3745 H   0  0  0  0  0  0  0  0  0  0  0  0  # atno 3677 bound_to 1070
   -9.3551  -36.6494  -32.6651 H   0  0  0  0  0  0  0  0  0  0  0  0  # atno 3781 bound_to 1176
  -15.5880  -28.8063  -37.0690 H   0  0  0  0  0  0  0  0  0  0  0  0  # atno 3847 bound_to 1247
  -12.8630  -24.9794  -38.8147 H   0  0  0  0  0  0  0  0  0  0  0  0  # atno 4507 bound_to 1931
   -2.6533  -33.9350  -36.7525 H   0  0  0  0  0  0  0  0  0  0  0  0  # atno 4531 bound_to 1957
  -10.7363  -37.4466  -32.9890 LP  0  0  0  0  0  0  0  0  0  0  0  0  # atno 5205 bound_to 1176
  -10.0241  -36.5387  -34.1444 LP  0  0  0  0  0  0  0  0  0  0  0  0  # atno 5206 bound_to 1176
  -15.6698  -27.2770  -37.6192 LP  0  0  0  0  0  0  0  0  0  0  0  0  # atno 5215 bound_to 1247
  -14.3039  -28.1487  -37.8218 LP  0  0  0  0  0  0  0  0  0  0  0  0  # atno 5216 bound_to 1247
  -13.6896  -24.9804  -40.2165 LP  0  0  0  0  0  0  0  0  0  0  0  0  # atno 5217 bound_to 1931
  -12.6436  -23.7715  -39.8829 LP  0  0  0  0  0  0  0  0  0  0  0  0  # atno 5218 bound_to 1931
  -11.2362  -22.3968  -30.8921 LP  0  0  0  0  0  0  0  0  0  0  0  0  # atno 5224 bound_to 1070
  -12.7335  -22.8219  -30.3980 LP  0  0  0  0  0  0  0  0  0  0  0  0  # atno 5225 bound_to 1070

$$$$
IA_13|SeH_inactivess_minimized|sdf|31|dock8
  -GOLD-   4172119143D 1   1.00000     0.00000

 64 67  0  0  0  0  0  0  0  0  1 V2000
   -7.6620  -33.6334  -34.7747 C   0  0  0  0  0  0  0  0  0  0  0  0
   -8.3651  -30.6347  -35.3265 C   0  0  0  0  0  0  0  0  0  0  0  0
  -13.2999  -25.3606  -37.2296 C   0  0  0  0  0  0  0  0  0  0  0  0
   -5.0399  -31.9679  -34.3375 C   0  0  0  0  0  0  0  0  0  0  0  0
   -5.4202  -32.8251  -35.5422 C   0  0  0  0  0  0  0  0  0  0  0  0
  -17.7441  -25.8197  -38.9662 C   0  0  0  0  0  0  0  0  0  0  0  0
  -17.3749  -23.6232  -40.1185 C   0  0  0  0  0  0  0  0  0  0  0  0
  -18.2954  -23.6764  -37.7864 C   0  0  0  0  0  0  0  0  0  0  0  0
  -15.4118  -24.9954  -39.3763 C   0  0  0  0  0  0  0  0  0  0  0  0
  -16.3334  -25.0487  -37.0419 C   0  0  0  0  0  0  0  0  0  0  0  0
  -15.9639  -22.8484  -38.1955 C   0  0  0  0  0  0  0  0  0  0  0  0
   -5.9977  -30.7900  -34.4304 C   0  0  0  0  0  0  0  0  0  0  0  0
   -6.9313  -32.6501  -35.6387 C   0  0  2  0  0  0  0  0  0  0  0  0
  -16.8393  -25.0548  -39.9468 C   0  0  0  0  0  0  0  0  0  0  0  0
  -17.7647  -25.1083  -37.6028 C   0  0  0  0  0  0  0  0  0  0  0  0
  -17.3936  -22.8999  -38.7610 C   0  0  0  0  0  0  0  0  0  0  0  0
  -15.4083  -24.2769  -38.0088 C   0  0  0  0  0  0  0  0  0  0  0  0
   -8.3940  -29.2095  -34.8348 C   0  0  0  0  0  0  0  0  0  0  0  0
   -9.7267  -28.5440  -35.1640 C   0  0  0  0  0  0  0  0  0  0  0  0
   -9.9088  -27.2048  -34.4419 C   0  0  0  0  0  0  0  0  0  0  0  0
  -11.1696  -26.4820  -34.9268 C   0  0  0  0  0  0  0  0  0  0  0  0
  -11.0534  -26.0114  -36.3730 C   0  0  0  0  0  0  0  0  0  0  0  0
   -7.1861  -31.3243  -35.0904 N   0  0  0  0  0  0  0  0  0  0  0  0
  -14.0652  -24.2248  -37.4741 N   0  0  0  0  0  0  0  0  0  0  0  0
  -12.0496  -25.0242  -36.7168 N   0  0  0  0  0  0  0  0  0  0  0  0
   -8.1516  -33.3811  -33.6839 O   0  0  0  0  0  0  0  0  0  0  0  0
   -9.3492  -31.1195  -35.8877 O   0  0  0  0  0  0  0  0  0  0  0  0
  -13.6761  -26.5132  -37.4386 O   0  0  0  0  0  0  0  0  0  0  0  0
   -7.7063  -34.8513  -35.3679 O   0  0  0  0  0  0  0  0  0  0  0  0
   -5.2179  -32.5253  -33.4103 H   0  0  0  0  0  0  0  0  0  0  0  0
   -3.9911  -31.6583  -34.3496 H   0  0  0  0  0  0  0  0  0  0  0  0
   -4.9416  -32.4178  -36.4411 H   0  0  0  0  0  0  0  0  0  0  0  0
   -5.1044  -33.8662  -35.4257 H   0  0  0  0  0  0  0  0  0  0  0  0
  -18.7619  -25.8855  -39.3700 H   0  0  0  0  0  0  0  0  0  0  0  0
  -17.3819  -26.8482  -38.8466 H   0  0  0  0  0  0  0  0  0  0  0  0
  -16.7470  -23.0707  -40.8283 H   0  0  0  0  0  0  0  0  0  0  0  0
  -18.3864  -23.6504  -40.5422 H   0  0  0  0  0  0  0  0  0  0  0  0
  -19.3231  -23.7038  -38.1689 H   0  0  0  0  0  0  0  0  0  0  0  0
  -18.3299  -23.1627  -36.8177 H   0  0  0  0  0  0  0  0  0  0  0  0
  -15.0102  -26.0120  -39.2734 H   0  0  0  0  0  0  0  0  0  0  0  0
  -14.7505  -24.4737  -40.0808 H   0  0  0  0  0  0  0  0  0  0  0  0
  -16.3396  -24.5658  -36.0559 H   0  0  0  0  0  0  0  0  0  0  0  0
  -15.9526  -26.0663  -36.8829 H   0  0  0  0  0  0  0  0  0  0  0  0
  -15.3164  -22.2742  -38.8710 H   0  0  0  0  0  0  0  0  0  0  0  0
  -15.9625  -22.3109  -37.2379 H   0  0  0  0  0  0  0  0  0  0  0  0
   -6.2492  -30.3729  -33.4515 H   0  0  0  0  0  0  0  0  0  0  0  0
   -5.5894  -29.9948  -35.0637 H   0  0  0  0  0  0  0  0  0  0  0  0
   -7.3094  -32.7309  -36.6623 H   0  0  0  0  0  0  0  0  0  0  0  0
  -16.8293  -25.5650  -40.9164 H   0  0  0  0  0  0  0  0  0  0  0  0
  -18.4116  -25.6567  -36.9090 H   0  0  0  0  0  0  0  0  0  0  0  0
  -17.7778  -21.8819  -38.8893 H   0  0  0  0  0  0  0  0  0  0  0  0
   -7.5565  -28.6633  -35.2792 H   0  0  0  0  0  0  0  0  0  0  0  0
   -8.2560  -29.2348  -33.7489 H   0  0  0  0  0  0  0  0  0  0  0  0
   -9.8113  -28.3917  -36.2471 H   0  0  0  0  0  0  0  0  0  0  0  0
  -10.5369  -29.2218  -34.8688 H   0  0  0  0  0  0  0  0  0  0  0  0
   -9.0355  -26.5651  -34.6157 H   0  0  0  0  0  0  0  0  0  0  0  0
   -9.9719  -27.3809  -33.3616 H   0  0  0  0  0  0  0  0  0  0  0  0
  -11.3770  -25.6257  -34.2732 H   0  0  0  0  0  0  0  0  0  0  0  0
  -12.0261  -27.1627  -34.8492 H   0  0  0  0  0  0  0  0  0  0  0  0
  -11.1934  -26.8560  -37.0549 H   0  0  0  0  0  0  0  0  0  0  0  0
  -10.0687  -25.5746  -36.5672 H   0  0  0  0  0  0  0  0  0  0  0  0
  -13.6623  -23.3171  -37.2675 H   0  0  0  0  0  0  0  0  0  0  0  0
  -11.8087  -24.0427  -36.6206 H   0  0  0  0  0  0  0  0  0  0  0  0
   -8.2389  -35.4919  -34.8499 H   0  0  0  0  0  0  0  0  0  0  0  0
  1 13  1  0  0  0  0
  1 26  2  0  0  0  0
  1 29  1  0  0  0  0
  2 18  1  0  0  0  0
  2 23  1  0  0  0  0
  2 27  2  0  0  0  0
  3 24  1  0  0  0  0
  3 25  1  0  0  0  0
  3 28  2  0  0  0  0
  4  5  1  0  0  0  0
  4 12  1  0  0  0  0
  5 13  1  0  0  0  0
  6 14  1  0  0  0  0
  6 15  1  0  0  0  0
  7 14  1  0  0  0  0
  7 16  1  0  0  0  0
  8 15  1  0  0  0  0
  8 16  1  0  0  0  0
  9 14  1  0  0  0  0
  9 17  1  0  0  0  0
 10 15  1  0  0  0  0
 10 17  1  0  0  0  0
 11 16  1  0  0  0  0
 11 17  1  0  0  0  0
 12 23  1  0  0  0  0
 13 23  1  0  0  0  0
 17 24  1  0  0  0  0
 18 19  1  0  0  0  0
 19 20  1  0  0  0  0
 20 21  1  0  0  0  0
 21 22  1  0  0  0  0
 22 25  1  0  0  0  0
  4 30  1  0  0  0  0
  4 31  1  0  0  0  0
  5 32  1  0  0  0  0
  5 33  1  0  0  0  0
  6 34  1  0  0  0  0
  6 35  1  0  0  0  0
  7 36  1  0  0  0  0
  7 37  1  0  0  0  0
  8 38  1  0  0  0  0
  8 39  1  0  0  0  0
  9 40  1  0  0  0  0
  9 41  1  0  0  0  0
 10 42  1  0  0  0  0
 10 43  1  0  0  0  0
 11 44  1  0  0  0  0
 11 45  1  0  0  0  0
 12 46  1  0  0  0  0
 12 47  1  0  0  0  0
 13 48  1  0  0  0  0
 14 49  1  0  0  0  0
 15 50  1  0  0  0  0
 16 51  1  0  0  0  0
 18 52  1  0  0  0  0
 18 53  1  0  0  0  0
 19 54  1  0  0  0  0
 19 55  1  0  0  0  0
 20 56  1  0  0  0  0
 20 57  1  0  0  0  0
 21 58  1  0  0  0  0
 21 59  1  0  0  0  0
 22 60  1  0  0  0  0
 22 61  1  0  0  0  0
 24 62  1  0  0  0  0
 25 63  1  0  0  0  0
 29 64  1  0  0  0  0
M  END
> <Name>
IA_13

> <SourceTag>
IA_13

> <Gold.Version>
5.2

> <Gold.Id.Protein>
6HGV|6HGV_protein|mol2

> <Gold.Goldscore.Fitness>
66.3362

> <Gold.Goldscore.Internal.Vdw>
-3.7207

> <Gold.Goldscore.Internal.Torsion>
-3.6743

> <Gold.Goldscore.External.Vdw>
44.9952

> <Gold.Goldscore.Internal.HBond>
0.0000

> <Gold.Goldscore.External.HBond>
5.9861

> <Gold.Goldscore.Internal.Correction>
-5.8769

> <Gold.Goldscore.Hbonds>
donor molecule, donor type, donor heavy atom, donor atom, acceptor molecule, acceptor atom, score
      P1  H  1247  3847       L1    28  0.13
      L1  H    24    62       P1   854  0.63
      L1  H    25    63       P1   854  0.12
      L1  H    29    64       P1  1176  0.59

> <Gold.Goldscore.Internal.Vdw.Weighted>
-3.7207

> <Gold.Goldscore.Internal.Torsion.Weighted>
-3.6743

> <Gold.Goldscore.External.Vdw.Weighted>
61.8683

> <Gold.Goldscore.Internal.HBond.Weighted>
0.0000

> <Gold.Goldscore.External.HBond.Weighted>
5.9861

> <Gold.Goldscore.Internal.Correction.Weighted>
-5.8769

> <Gold.Protein.RotatedTorsions>
[ 3781 1176 1175 1172 ] final  136.77 input   60.00 | X-H torsion
[ 3847 1247 1246 1244 ] final  150.81 input   60.00 | X-H torsion
[ 4507 1931 1930 1928 ] final  137.52 input   60.00 | X-H torsion
[ 3677 1070 1069 1066 ] final -112.26 input   60.00 | X-H torsion
[ 3525  925  924  922 ] final   21.09 input   59.99 | X-H torsion
[ 4531 1957 1955 1953 ] final  -35.49 input   60.00 | X-H torsion

> <Gold.Protein.ActiveResidues>
 PHE267  PRO268  MET310  ASP335  TRP336  MET339  TYR343  THR360  PRO361  ILE363 
 PRO371  SER374  ILE375  ASN378  PHE381  TYR383  GLN384  PHE387  LEU408  LEU417 
 MET419  LEU428  TYR466  MET469  ASN472  ASP496  VAL498  LEU499  MET503  HIS524 
 TRP525 

> <Gold.Protein.RotatedAtoms>
   -3.3642  -29.6256  -30.7141 H   0  0  0  0  0  0  0  0  0  0  0  0  # atno 3525 bound_to 925 
  -11.5629  -23.6562  -31.4457 H   0  0  0  0  0  0  0  0  0  0  0  0  # atno 3677 bound_to 1070
   -9.6264  -36.9206  -32.4244 H   0  0  0  0  0  0  0  0  0  0  0  0  # atno 3781 bound_to 1176
  -14.3892  -27.8208  -37.9164 H   0  0  0  0  0  0  0  0  0  0  0  0  # atno 3847 bound_to 1247
  -12.5147  -23.8211  -39.6092 H   0  0  0  0  0  0  0  0  0  0  0  0  # atno 4507 bound_to 1931
   -2.3699  -32.2162  -36.7767 H   0  0  0  0  0  0  0  0  0  0  0  0  # atno 4531 bound_to 1957
  -10.8368  -37.3509  -33.4234 LP  0  0  0  0  0  0  0  0  0  0  0  0  # atno 5205 bound_to 1176
   -9.6504  -36.3613  -33.9524 LP  0  0  0  0  0  0  0  0  0  0  0  0  # atno 5206 bound_to 1176
  -15.2718  -28.9444  -37.1375 LP  0  0  0  0  0  0  0  0  0  0  0  0  # atno 5215 bound_to 1247
  -15.9091  -27.4737  -37.4500 LP  0  0  0  0  0  0  0  0  0  0  0  0  # atno 5216 bound_to 1247
  -13.0685  -25.1842  -38.9139 LP  0  0  0  0  0  0  0  0  0  0  0  0  # atno 5217 bound_to 1931
  -13.6155  -24.7342  -40.3853 LP  0  0  0  0  0  0  0  0  0  0  0  0  # atno 5218 bound_to 1931
  -11.4766  -22.2250  -30.6760 LP  0  0  0  0  0  0  0  0  0  0  0  0  # atno 5224 bound_to 1070
  -12.8173  -23.1477  -30.5424 LP  0  0  0  0  0  0  0  0  0  0  0  0  # atno 5225 bound_to 1070

$$$$
IA_80.cdx|SeH_inactivess_minimized|sdf|158|dock9
  -GOLD-   4172122173D 1   1.00000     0.00000

 32 31  0  0  0  0  0  0  0  0  1 V2000
   -9.6492  -29.8083  -35.1832 C   0  0  0  0  0  0  0  0  0  0  0  0
  -11.4041  -25.1646  -33.7658 C   0  0  0  0  0  0  0  0  0  0  0  0
  -11.3029  -25.6432  -36.1975 C   0  0  0  0  0  0  0  0  0  0  0  0
   -9.4014  -26.3227  -34.7399 C   0  0  0  0  0  0  0  0  0  0  0  0
  -11.1444  -28.1270  -32.1713 C   0  0  0  0  0  0  0  0  0  0  0  0
  -12.1939  -29.8132  -33.6666 C   0  0  0  0  0  0  0  0  0  0  0  0
  -11.6659  -27.5682  -34.6402 C   0  0  0  0  0  0  0  0  0  0  0  0
  -10.9299  -26.2003  -34.8019 C   0  0  0  0  0  0  0  0  0  0  0  0
  -11.1950  -28.6390  -33.6131 C   0  0  0  0  0  0  0  0  0  0  0  0
   -8.3303  -30.2119  -35.2890 N   0  0  0  0  0  0  0  0  0  0  0  0
   -9.8917  -29.1649  -33.9824 N   0  0  0  0  0  0  0  0  0  0  0  0
  -10.4812  -30.0113  -36.0658 O   0  0  0  0  0  0  0  0  0  0  0  0
  -11.1737  -25.4595  -32.7408 H   0  0  0  0  0  0  0  0  0  0  0  0
  -12.4849  -24.9993  -33.8356 H   0  0  0  0  0  0  0  0  0  0  0  0
  -10.9140  -24.1969  -33.9269 H   0  0  0  0  0  0  0  0  0  0  0  0
  -10.8881  -26.2688  -36.9964 H   0  0  0  0  0  0  0  0  0  0  0  0
  -10.9187  -24.6259  -36.3347 H   0  0  0  0  0  0  0  0  0  0  0  0
  -12.3896  -25.6050  -36.3352 H   0  0  0  0  0  0  0  0  0  0  0  0
   -9.0365  -27.0554  -35.4694 H   0  0  0  0  0  0  0  0  0  0  0  0
   -8.9054  -25.3749  -34.9691 H   0  0  0  0  0  0  0  0  0  0  0  0
   -9.0703  -26.6558  -33.7502 H   0  0  0  0  0  0  0  0  0  0  0  0
  -10.3292  -27.4049  -32.0393 H   0  0  0  0  0  0  0  0  0  0  0  0
  -10.9787  -28.9446  -31.4620 H   0  0  0  0  0  0  0  0  0  0  0  0
  -12.0602  -27.5967  -31.8951 H   0  0  0  0  0  0  0  0  0  0  0  0
  -13.1121  -29.5817  -33.1151 H   0  0  0  0  0  0  0  0  0  0  0  0
  -12.4715  -30.0506  -34.7005 H   0  0  0  0  0  0  0  0  0  0  0  0
  -11.7617  -30.7232  -33.2337 H   0  0  0  0  0  0  0  0  0  0  0  0
  -11.6635  -28.0582  -35.6259 H   0  0  0  0  0  0  0  0  0  0  0  0
  -12.7237  -27.3455  -34.4365 H   0  0  0  0  0  0  0  0  0  0  0  0
   -7.9858  -30.6979  -36.1100 H   0  0  0  0  0  0  0  0  0  0  0  0
   -7.6647  -30.0313  -34.5448 H   0  0  0  0  0  0  0  0  0  0  0  0
   -9.1259  -29.0556  -33.3312 H   0  0  0  0  0  0  0  0  0  0  0  0
  1 10  1  0  0  0  0
  1 11  1  0  0  0  0
  1 12  2  0  0  0  0
  2  8  1  0  0  0  0
  3  8  1  0  0  0  0
  4  8  1  0  0  0  0
  5  9  1  0  0  0  0
  6  9  1  0  0  0  0
  7  8  1  0  0  0  0
  7  9  1  0  0  0  0
  9 11  1  0  0  0  0
  2 13  1  0  0  0  0
  2 14  1  0  0  0  0
  2 15  1  0  0  0  0
  3 16  1  0  0  0  0
  3 17  1  0  0  0  0
  3 18  1  0  0  0  0
  4 19  1  0  0  0  0
  4 20  1  0  0  0  0
  4 21  1  0  0  0  0
  5 22  1  0  0  0  0
  5 23  1  0  0  0  0
  5 24  1  0  0  0  0
  6 25  1  0  0  0  0
  6 26  1  0  0  0  0
  6 27  1  0  0  0  0
  7 28  1  0  0  0  0
  7 29  1  0  0  0  0
 10 30  1  0  0  0  0
 10 31  1  0  0  0  0
 11 32  1  0  0  0  0
M  END
> <Name>
IA_80.cdx

> <SourceTag>
IA_80

> <Gold.Version>
5.2

> <Gold.Id.Protein>
6HGV|6HGV_protein|mol2

> <Gold.Goldscore.Fitness>
34.5689

> <Gold.Goldscore.Internal.Vdw>
-3.8107

> <Gold.Goldscore.Internal.Torsion>
-2.4186

> <Gold.Goldscore.External.Vdw>
25.0128

> <Gold.Goldscore.Internal.HBond>
0.0000

> <Gold.Goldscore.External.HBond>
0.7536

> <Gold.Goldscore.Internal.Correction>
-5.6520

> <Gold.Goldscore.Hbonds>
donor molecule, donor type, donor heavy atom, donor atom, acceptor molecule, acceptor atom, score
      P1  H  1256  3854       L1    12  0.38

> <Gold.Goldscore.Internal.Vdw.Weighted>
-3.8107

> <Gold.Goldscore.Internal.Torsion.Weighted>
-2.4186

> <Gold.Goldscore.External.Vdw.Weighted>
34.3926

> <Gold.Goldscore.Internal.HBond.Weighted>
0.0000

> <Gold.Goldscore.External.HBond.Weighted>
0.7536

> <Gold.Goldscore.Internal.Correction.Weighted>
-5.6520

> <Gold.Protein.RotatedTorsions>
[ 3781 1176 1175 1172 ] final  -13.20 input   60.00 | X-H torsion
[ 3847 1247 1246 1244 ] final   -7.28 input   60.00 | X-H torsion
[ 4507 1931 1930 1928 ] final  -15.83 input   60.00 | X-H torsion
[ 3677 1070 1069 1066 ] final -171.73 input   60.00 | X-H torsion
[ 3525  925  924  922 ] final   -7.12 input   59.99 | X-H torsion
[ 4531 1957 1955 1953 ] final   58.95 input   60.00 | X-H torsion

> <Gold.Protein.ActiveResidues>
 PHE267  PRO268  MET310  ASP335  TRP336  MET339  TYR343  THR360  PRO361  ILE363 
 PRO371  SER374  ILE375  ASN378  PHE381  TYR383  GLN384  PHE387  LEU408  LEU417 
 MET419  LEU428  TYR466  MET469  ASN472  ASP496  VAL498  LEU499  MET503  HIS524 
 TRP525 

> <Gold.Protein.RotatedAtoms>
   -3.6563  -29.5291  -30.3771 H   0  0  0  0  0  0  0  0  0  0  0  0  # atno 3525 bound_to 925 
  -11.0916  -22.8836  -31.2374 H   0  0  0  0  0  0  0  0  0  0  0  0  # atno 3677 bound_to 1070
  -10.7311  -37.1269  -33.8414 H   0  0  0  0  0  0  0  0  0  0  0  0  # atno 3781 bound_to 1176
  -15.7941  -28.6342  -37.0539 H   0  0  0  0  0  0  0  0  0  0  0  0  # atno 3847 bound_to 1247
  -13.4138  -25.3718  -39.2830 H   0  0  0  0  0  0  0  0  0  0  0  0  # atno 4507 bound_to 1931
   -3.0614  -33.3988  -36.6657 H   0  0  0  0  0  0  0  0  0  0  0  0  # atno 4531 bound_to 1957
   -9.3526  -36.3057  -33.5705 LP  0  0  0  0  0  0  0  0  0  0  0  0  # atno 5205 bound_to 1176
  -10.0221  -37.1988  -32.3784 LP  0  0  0  0  0  0  0  0  0  0  0  0  # atno 5206 bound_to 1176
  -15.4388  -27.2015  -37.7387 LP  0  0  0  0  0  0  0  0  0  0  0  0  # atno 5215 bound_to 1247
  -14.3272  -28.3975  -37.7174 LP  0  0  0  0  0  0  0  0  0  0  0  0  # atno 5216 bound_to 1247
  -13.3485  -24.2737  -40.4822 LP  0  0  0  0  0  0  0  0  0  0  0  0  # atno 5217 bound_to 1931
  -12.4300  -24.0830  -39.1456 LP  0  0  0  0  0  0  0  0  0  0  0  0  # atno 5218 bound_to 1931
  -12.3350  -22.3570  -30.3292 LP  0  0  0  0  0  0  0  0  0  0  0  0  # atno 5224 bound_to 1070
  -12.4335  -23.7938  -31.0990 LP  0  0  0  0  0  0  0  0  0  0  0  0  # atno 5225 bound_to 1070

$$$$
IA_124.cdx|SeH_inactivess_minimized|sdf|25|dock5
  -GOLD-   4172119 53D 1   1.00000     0.00000

 28 28  0  0  0  0  0  0  0  0  1 V2000
   -9.6384  -26.8303  -34.9601 C   0  0  0  0  0  0  0  0  0  0  0  0
   -9.9907  -25.5643  -34.4923 C   0  0  0  0  0  0  0  0  0  0  0  0
  -10.5783  -27.6121  -35.6317 C   0  0  0  0  0  0  0  0  0  0  0  0
  -11.2829  -25.0802  -34.6961 C   0  0  0  0  0  0  0  0  0  0  0  0
  -11.8704  -27.1280  -35.8355 C   0  0  0  0  0  0  0  0  0  0  0  0
  -12.2228  -25.8620  -35.3678 C   0  0  0  0  0  0  0  0  0  0  0  0
  -15.7089  -22.8310  -38.4784 C   0  0  0  0  0  0  0  0  0  0  0  0
  -14.7365  -26.0736  -35.5294 C   0  0  0  0  0  0  0  0  0  0  0  0
  -17.2036  -25.6574  -35.4482 C   0  0  0  0  0  0  0  0  0  0  0  0
  -15.7409  -24.1751  -37.8053 C   0  0  0  0  0  0  0  0  0  0  0  0
  -13.5327  -25.3709  -35.5744 N   0  0  0  0  0  0  0  0  0  0  0  0
  -15.8440  -25.2746  -35.7823 N   0  0  0  0  0  0  0  0  0  0  0  0
  -16.3578  -22.5084  -39.4621 O   0  0  0  0  0  0  0  0  0  0  0  0
  -14.8488  -27.2776  -35.2963 O   0  0  0  0  0  0  0  0  0  0  0  0
  -14.8464  -22.0050  -37.8342 O   0  0  0  0  0  0  0  0  0  0  0  0
  -15.7674  -24.0058  -36.3904 O   0  0  0  0  0  0  0  0  0  0  0  0
   -8.6321  -27.2072  -34.8022 H   0  0  0  0  0  0  0  0  0  0  0  0
   -9.2590  -24.9550  -33.9701 H   0  0  0  0  0  0  0  0  0  0  0  0
  -10.3032  -28.5975  -35.9967 H   0  0  0  0  0  0  0  0  0  0  0  0
  -11.5461  -24.0920  -34.3272 H   0  0  0  0  0  0  0  0  0  0  0  0
  -12.5945  -27.7463  -36.3604 H   0  0  0  0  0  0  0  0  0  0  0  0
  -17.5704  -26.4008  -36.1608 H   0  0  0  0  0  0  0  0  0  0  0  0
  -17.8609  -24.7844  -35.4810 H   0  0  0  0  0  0  0  0  0  0  0  0
  -17.2394  -26.0857  -34.4430 H   0  0  0  0  0  0  0  0  0  0  0  0
  -14.8379  -24.7329  -38.0668 H   0  0  0  0  0  0  0  0  0  0  0  0
  -16.6311  -24.7298  -38.1140 H   0  0  0  0  0  0  0  0  0  0  0  0
  -13.6040  -24.3758  -35.7695 H   0  0  0  0  0  0  0  0  0  0  0  0
  -14.7681  -21.1358  -38.2826 H   0  0  0  0  0  0  0  0  0  0  0  0
  1  2  2  0  0  0  0
  1  3  1  0  0  0  0
  2  4  1  0  0  0  0
  3  5  2  0  0  0  0
  4  6  2  0  0  0  0
  5  6  1  0  0  0  0
  6 11  1  0  0  0  0
  7 10  1  0  0  0  0
  7 13  2  0  0  0  0
  7 15  1  0  0  0  0
  8 11  1  0  0  0  0
  8 12  1  0  0  0  0
  8 14  2  0  0  0  0
  9 12  1  0  0  0  0
 10 16  1  0  0  0  0
 12 16  1  0  0  0  0
  1 17  1  0  0  0  0
  2 18  1  0  0  0  0
  3 19  1  0  0  0  0
  4 20  1  0  0  0  0
  5 21  1  0  0  0  0
  9 22  1  0  0  0  0
  9 23  1  0  0  0  0
  9 24  1  0  0  0  0
 10 25  1  0  0  0  0
 10 26  1  0  0  0  0
 11 27  1  0  0  0  0
 15 28  1  0  0  0  0
M  END
> <Name>
IA_124.cdx

> <SourceTag>
IA_124

> <Gold.Version>
5.2

> <Gold.Id.Protein>
6HGV|6HGV_protein|mol2

> <Gold.Goldscore.Fitness>
46.8706

> <Gold.Goldscore.Internal.Vdw>
-0.3986

> <Gold.Goldscore.Internal.Torsion>
-6.1454

> <Gold.Goldscore.External.Vdw>
34.1969

> <Gold.Goldscore.Internal.HBond>
0.0000

> <Gold.Goldscore.External.HBond>
2.0239

> <Gold.Goldscore.Internal.Correction>
-4.3699

> <Gold.Goldscore.Hbonds>
donor molecule, donor type, donor heavy atom, donor atom, acceptor molecule, acceptor atom, score
      L1  H    11    27       P1   853  0.18
      L1  H    15    28       P1   302  0.48

> <Gold.Goldscore.Internal.Vdw.Weighted>
-0.3986

> <Gold.Goldscore.Internal.Torsion.Weighted>
-6.1454

> <Gold.Goldscore.External.Vdw.Weighted>
47.0208

> <Gold.Goldscore.Internal.HBond.Weighted>
0.0000

> <Gold.Goldscore.External.HBond.Weighted>
2.0239

> <Gold.Goldscore.Internal.Correction.Weighted>
-4.3699

> <Gold.Protein.RotatedTorsions>
[ 3781 1176 1175 1172 ] final  172.47 input   60.00 | X-H torsion
[ 3847 1247 1246 1244 ] final  129.87 input   60.00 | X-H torsion
[ 4507 1931 1930 1928 ] final   53.00 input   60.00 | X-H torsion
[ 3677 1070 1069 1066 ] final -116.57 input   60.00 | X-H torsion
[ 3525  925  924  922 ] final   -6.02 input   59.99 | X-H torsion
[ 4531 1957 1955 1953 ] final  -23.18 input   60.00 | X-H torsion

> <Gold.Protein.ActiveResidues>
 PHE267  PRO268  MET310  ASP335  TRP336  MET339  TYR343  THR360  PRO361  ILE363 
 PRO371  SER374  ILE375  ASN378  PHE381  TYR383  GLN384  PHE387  LEU408  LEU417 
 MET419  LEU428  TYR466  MET469  ASN472  ASP496  VAL498  LEU499  MET503  HIS524 
 TRP525 

> <Gold.Protein.RotatedAtoms>
   -3.6480  -29.5313  -30.3927 H   0  0  0  0  0  0  0  0  0  0  0  0  # atno 3525 bound_to 925 
  -11.5063  -23.6147  -31.4499 H   0  0  0  0  0  0  0  0  0  0  0  0  # atno 3677 bound_to 1070
   -9.3065  -36.5817  -32.7595 H   0  0  0  0  0  0  0  0  0  0  0  0  # atno 3781 bound_to 1176
  -14.3114  -28.1392  -37.8252 H   0  0  0  0  0  0  0  0  0  0  0  0  # atno 3847 bound_to 1247
  -12.6991  -24.7633  -38.7945 H   0  0  0  0  0  0  0  0  0  0  0  0  # atno 4507 bound_to 1931
   -2.5575  -32.2793  -36.7421 H   0  0  0  0  0  0  0  0  0  0  0  0  # atno 4531 bound_to 1957
  -10.6779  -37.4498  -32.8765 LP  0  0  0  0  0  0  0  0  0  0  0  0  # atno 5205 bound_to 1176
  -10.1315  -36.6037  -34.1619 LP  0  0  0  0  0  0  0  0  0  0  0  0  # atno 5206 bound_to 1176
  -15.5812  -28.8161  -37.0651 LP  0  0  0  0  0  0  0  0  0  0  0  0  # atno 5215 bound_to 1247
  -15.6780  -27.2813  -37.6143 LP  0  0  0  0  0  0  0  0  0  0  0  0  # atno 5216 bound_to 1247
  -13.6997  -25.1641  -40.0136 LP  0  0  0  0  0  0  0  0  0  0  0  0  # atno 5217 bound_to 1931
  -12.7986  -23.8054  -40.1062 LP  0  0  0  0  0  0  0  0  0  0  0  0  # atno 5218 bound_to 1931
  -11.5324  -22.2051  -30.6372 LP  0  0  0  0  0  0  0  0  0  0  0  0  # atno 5224 bound_to 1070
  -12.8185  -23.2095  -30.5770 LP  0  0  0  0  0  0  0  0  0  0  0  0  # atno 5225 bound_to 1070

$$$$
IA_93.cdx|SeH_inactivess_minimized|sdf|172|dock1
  -GOLD-   41821 8303D 1   1.00000     0.00000

 51 51  0  0  0  0  0  0  0  0  1 V2000
   -7.8337  -29.8615  -35.2137 C   0  0  0  0  0  0  0  0  0  0  0  0
   -4.8017  -31.5121  -35.7405 C   0  0  0  0  0  0  0  0  0  0  0  0
   -4.4743  -31.5010  -34.2769 C   0  0  0  0  0  0  0  0  0  0  0  0
   -5.9033  -31.3659  -34.7267 C   0  0  0  0  0  0  0  0  0  0  0  0
  -20.7831  -24.0444  -38.6282 C   0  0  0  0  0  0  0  0  0  0  0  0
  -20.5754  -23.6987  -37.1624 C   0  0  0  0  0  0  0  0  0  0  0  0
  -19.5980  -24.6651  -36.4915 C   0  0  0  0  0  0  0  0  0  0  0  0
  -18.1921  -24.5271  -37.0796 C   0  0  0  0  0  0  0  0  0  0  0  0
  -17.1258  -25.2980  -36.2955 C   0  0  0  0  0  0  0  0  0  0  0  0
  -15.7124  -25.1242  -36.8580 C   0  0  0  0  0  0  0  0  0  0  0  0
  -14.6671  -25.7305  -35.9177 C   0  0  0  0  0  0  0  0  0  0  0  0
  -13.2309  -25.5864  -36.4294 C   0  0  0  0  0  0  0  0  0  0  0  0
  -12.1868  -26.1969  -35.4920 C   0  0  0  0  0  0  0  0  0  0  0  0
  -10.7652  -25.8867  -35.9685 C   0  0  0  0  0  0  0  0  0  0  0  0
   -9.7216  -26.5810  -35.0880 C   0  0  0  0  0  0  0  0  0  0  0  0
   -9.5449  -28.0635  -35.4212 C   0  0  0  0  0  0  0  0  0  0  0  0
   -6.6227  -30.1219  -34.5781 N   0  0  0  0  0  0  0  0  0  0  0  0
   -8.2950  -28.5955  -34.8923 N   0  0  0  0  0  0  0  0  0  0  0  0
   -8.4130  -30.6512  -35.9586 O   0  0  0  0  0  0  0  0  0  0  0  0
   -4.5192  -30.6456  -36.3257 H   0  0  0  0  0  0  0  0  0  0  0  0
   -4.7244  -32.4545  -36.2687 H   0  0  0  0  0  0  0  0  0  0  0  0
   -4.1761  -32.4361  -33.8189 H   0  0  0  0  0  0  0  0  0  0  0  0
   -3.9729  -30.6268  -33.8797 H   0  0  0  0  0  0  0  0  0  0  0  0
   -6.5441  -32.2283  -34.5765 H   0  0  0  0  0  0  0  0  0  0  0  0
  -21.6392  -23.4932  -39.0300 H   0  0  0  0  0  0  0  0  0  0  0  0
  -19.9015  -23.7825  -39.2220 H   0  0  0  0  0  0  0  0  0  0  0  0
  -20.9778  -25.1142  -38.7550 H   0  0  0  0  0  0  0  0  0  0  0  0
  -21.5421  -23.7276  -36.6462 H   0  0  0  0  0  0  0  0  0  0  0  0
  -20.1964  -22.6730  -37.0847 H   0  0  0  0  0  0  0  0  0  0  0  0
  -19.9620  -25.6902  -36.6232 H   0  0  0  0  0  0  0  0  0  0  0  0
  -19.5672  -24.4665  -35.4136 H   0  0  0  0  0  0  0  0  0  0  0  0
  -18.1929  -24.8604  -38.1246 H   0  0  0  0  0  0  0  0  0  0  0  0
  -17.9098  -23.4669  -37.0870 H   0  0  0  0  0  0  0  0  0  0  0  0
  -17.3868  -26.3629  -36.2704 H   0  0  0  0  0  0  0  0  0  0  0  0
  -17.1434  -24.9440  -35.2572 H   0  0  0  0  0  0  0  0  0  0  0  0
  -15.6362  -25.6080  -37.8380 H   0  0  0  0  0  0  0  0  0  0  0  0
  -15.5134  -24.0567  -37.0021 H   0  0  0  0  0  0  0  0  0  0  0  0
  -14.7508  -25.2716  -34.9251 H   0  0  0  0  0  0  0  0  0  0  0  0
  -14.8782  -26.7996  -35.7901 H   0  0  0  0  0  0  0  0  0  0  0  0
  -13.0046  -24.5261  -36.5961 H   0  0  0  0  0  0  0  0  0  0  0  0
  -13.1662  -26.0800  -37.4071 H   0  0  0  0  0  0  0  0  0  0  0  0
  -12.3284  -27.2832  -35.4418 H   0  0  0  0  0  0  0  0  0  0  0  0
  -12.3169  -25.8039  -34.4774 H   0  0  0  0  0  0  0  0  0  0  0  0
  -10.6458  -26.2179  -37.0073 H   0  0  0  0  0  0  0  0  0  0  0  0
  -10.6083  -24.8017  -35.9538 H   0  0  0  0  0  0  0  0  0  0  0  0
   -8.7582  -26.0634  -35.1781 H   0  0  0  0  0  0  0  0  0  0  0  0
  -10.0253  -26.4981  -34.0369 H   0  0  0  0  0  0  0  0  0  0  0  0
  -10.3811  -28.6298  -34.9967 H   0  0  0  0  0  0  0  0  0  0  0  0
   -9.5684  -28.2087  -36.5066 H   0  0  0  0  0  0  0  0  0  0  0  0
   -6.2259  -29.4027  -33.9815 H   0  0  0  0  0  0  0  0  0  0  0  0
   -7.7839  -28.0248  -34.2361 H   0  0  0  0  0  0  0  0  0  0  0  0
  1 17  1  0  0  0  0
  1 18  1  0  0  0  0
  1 19  2  0  0  0  0
  2  3  1  0  0  0  0
  2  4  1  0  0  0  0
  3  4  1  0  0  0  0
  4 17  1  0  0  0  0
  5  6  1  0  0  0  0
  6  7  1  0  0  0  0
  7  8  1  0  0  0  0
  8  9  1  0  0  0  0
  9 10  1  0  0  0  0
 10 11  1  0  0  0  0
 11 12  1  0  0  0  0
 12 13  1  0  0  0  0
 13 14  1  0  0  0  0
 14 15  1  0  0  0  0
 15 16  1  0  0  0  0
 16 18  1  0  0  0  0
  2 20  1  0  0  0  0
  2 21  1  0  0  0  0
  3 22  1  0  0  0  0
  3 23  1  0  0  0  0
  4 24  1  0  0  0  0
  5 25  1  0  0  0  0
  5 26  1  0  0  0  0
  5 27  1  0  0  0  0
  6 28  1  0  0  0  0
  6 29  1  0  0  0  0
  7 30  1  0  0  0  0
  7 31  1  0  0  0  0
  8 32  1  0  0  0  0
  8 33  1  0  0  0  0
  9 34  1  0  0  0  0
  9 35  1  0  0  0  0
 10 36  1  0  0  0  0
 10 37  1  0  0  0  0
 11 38  1  0  0  0  0
 11 39  1  0  0  0  0
 12 40  1  0  0  0  0
 12 41  1  0  0  0  0
 13 42  1  0  0  0  0
 13 43  1  0  0  0  0
 14 44  1  0  0  0  0
 14 45  1  0  0  0  0
 15 46  1  0  0  0  0
 15 47  1  0  0  0  0
 16 48  1  0  0  0  0
 16 49  1  0  0  0  0
 17 50  1  0  0  0  0
 18 51  1  0  0  0  0
M  END
> <Name>
IA_93.cdx

> <SourceTag>
IA_93

> <Gold.Version>
5.2

> <Gold.Id.Protein>
6HGV|6HGV_protein|mol2

> <Gold.Goldscore.Fitness>
63.4809

> <Gold.Goldscore.Internal.Vdw>
-5.1943

> <Gold.Goldscore.Internal.Torsion>
-3.4196

> <Gold.Goldscore.External.Vdw>
48.2699

> <Gold.Goldscore.Internal.HBond>
0.0000

> <Gold.Goldscore.External.HBond>
0.0000

> <Gold.Goldscore.Internal.Correction>
-5.7237

> <Gold.Goldscore.Internal.Vdw.Weighted>
-5.1943

> <Gold.Goldscore.Internal.Torsion.Weighted>
-3.4196

> <Gold.Goldscore.External.Vdw.Weighted>
66.3711

> <Gold.Goldscore.Internal.HBond.Weighted>
0.0000

> <Gold.Goldscore.External.HBond.Weighted>
0.0000

> <Gold.Goldscore.Internal.Correction.Weighted>
-5.7237

> <Gold.Protein.RotatedTorsions>
[ 3781 1176 1175 1172 ] final  -53.95 input   60.00 | X-H torsion
[ 3847 1247 1246 1244 ] final  117.86 input   60.00 | X-H torsion
[ 4507 1931 1930 1928 ] final  104.41 input   60.00 | X-H torsion
[ 3677 1070 1069 1066 ] final  -87.28 input   60.00 | X-H torsion
[ 3525  925  924  922 ] final   34.54 input   59.99 | X-H torsion
[ 4531 1957 1955 1953 ] final  -56.88 input   60.00 | X-H torsion

> <Gold.Protein.ActiveResidues>
 PHE267  PRO268  MET310  ASP335  TRP336  MET339  TYR343  THR360  PRO361  ILE363 
 PRO371  SER374  ILE375  ASN378  PHE381  TYR383  GLN384  PHE387  LEU408  LEU417 
 MET419  LEU428  TYR466  MET469  ASN472  ASP496  VAL498  LEU499  MET503  HIS524 
 TRP525 

> <Gold.Protein.RotatedAtoms>
   -3.1819  -29.6960  -30.8132 H   0  0  0  0  0  0  0  0  0  0  0  0  # atno 3525 bound_to 925 
  -11.9238  -23.8193  -31.3612 H   0  0  0  0  0  0  0  0  0  0  0  0  # atno 3677 bound_to 1070
  -10.3120  -36.7325  -34.1478 H   0  0  0  0  0  0  0  0  0  0  0  0  # atno 3781 bound_to 1176
  -14.3191  -28.3210  -37.7526 H   0  0  0  0  0  0  0  0  0  0  0  0  # atno 3847 bound_to 1247
  -12.4325  -24.0850  -39.1529 H   0  0  0  0  0  0  0  0  0  0  0  0  # atno 4507 bound_to 1931
   -2.0287  -32.2073  -36.8414 H   0  0  0  0  0  0  0  0  0  0  0  0  # atno 4531 bound_to 1957
   -9.2491  -36.4714  -32.9436 LP  0  0  0  0  0  0  0  0  0  0  0  0  # atno 5205 bound_to 1176
  -10.5477  -37.4302  -32.6967 LP  0  0  0  0  0  0  0  0  0  0  0  0  # atno 5206 bound_to 1176
  -15.7376  -28.6970  -37.0493 LP  0  0  0  0  0  0  0  0  0  0  0  0  # atno 5215 bound_to 1247
  -15.5139  -27.2174  -37.7031 LP  0  0  0  0  0  0  0  0  0  0  0  0  # atno 5216 bound_to 1247
  -13.4158  -25.3757  -39.2762 LP  0  0  0  0  0  0  0  0  0  0  0  0  # atno 5217 bound_to 1931
  -13.3509  -24.2769  -40.4825 LP  0  0  0  0  0  0  0  0  0  0  0  0  # atno 5218 bound_to 1931
  -11.2148  -22.4233  -30.9177 LP  0  0  0  0  0  0  0  0  0  0  0  0  # atno 5224 bound_to 1070
  -12.7157  -22.7851  -30.3858 LP  0  0  0  0  0  0  0  0  0  0  0  0  # atno 5225 bound_to 1070

$$$$
IA_162.cdx|SeH_inactivess_minimized|sdf|64|dock7
  -GOLD-   4172120 43D 1   1.00000     0.00000

 18 18  0  0  0  0  0  0  0  0  1 V2000
   -9.6829  -29.8526  -34.1872 C   0  0  0  0  0  0  0  0  0  0  0  0
  -10.6390  -29.0069  -33.6250 C   0  0  0  0  0  0  0  0  0  0  0  0
   -9.2255  -29.6233  -35.4849 C   0  0  0  0  0  0  0  0  0  0  0  0
  -11.1380  -27.9318  -34.3606 C   0  0  0  0  0  0  0  0  0  0  0  0
   -9.7245  -28.5483  -36.2205 C   0  0  0  0  0  0  0  0  0  0  0  0
  -10.6808  -27.7025  -35.6583 C   0  0  0  0  0  0  0  0  0  0  0  0
  -11.4570  -25.3172  -36.0422 C   0  0  0  0  0  0  0  0  0  0  0  0
  -11.9476  -24.4641  -36.9830 N   0  0  0  0  0  0  0  0  0  0  0  0
  -11.1798  -26.6270  -36.3938 N   0  0  0  0  0  0  0  0  0  0  0  0
  -11.1294  -24.7593  -34.4943 S   0  0  0  0  0  0  0  0  0  0  0  0
   -9.2935  -30.6894  -33.6145 H   0  0  0  0  0  0  0  0  0  0  0  0
  -10.9947  -29.1845  -32.6144 H   0  0  0  0  0  0  0  0  0  0  0  0
   -8.4803  -30.2815  -35.9220 H   0  0  0  0  0  0  0  0  0  0  0  0
  -11.8828  -27.2792  -33.9120 H   0  0  0  0  0  0  0  0  0  0  0  0
   -9.3607  -28.3793  -37.2310 H   0  0  0  0  0  0  0  0  0  0  0  0
  -12.0259  -23.4714  -36.7869 H   0  0  0  0  0  0  0  0  0  0  0  0
  -12.1245  -24.7371  -37.9419 H   0  0  0  0  0  0  0  0  0  0  0  0
  -11.3675  -26.8204  -37.3845 H   0  0  0  0  0  0  0  0  0  0  0  0
  1  2  2  0  0  0  0
  1  3  1  0  0  0  0
  2  4  1  0  0  0  0
  3  5  2  0  0  0  0
  4  6  2  0  0  0  0
  5  6  1  0  0  0  0
  6  9  1  0  0  0  0
  7  8  1  0  0  0  0
  7  9  1  0  0  0  0
  7 10  2  0  0  0  0
  1 11  1  0  0  0  0
  2 12  1  0  0  0  0
  3 13  1  0  0  0  0
  4 14  1  0  0  0  0
  5 15  1  0  0  0  0
  8 16  1  0  0  0  0
  8 17  1  0  0  0  0
  9 18  1  0  0  0  0
M  END
> <Name>
IA_162.cdx

> <SourceTag>
IA_162

> <Gold.Version>
5.2

> <Gold.Id.Protein>
6HGV|6HGV_protein|mol2

> <Gold.Goldscore.Fitness>
38.2281

> <Gold.Goldscore.Internal.Vdw>
-0.0523

> <Gold.Goldscore.Internal.Torsion>
-2.7954

> <Gold.Goldscore.External.Vdw>
23.6568

> <Gold.Goldscore.Internal.HBond>
0.0000

> <Gold.Goldscore.External.HBond>
5.7280

> <Gold.Goldscore.Internal.Correction>
-2.8197

> <Gold.Goldscore.Hbonds>
donor molecule, donor type, donor heavy atom, donor atom, acceptor molecule, acceptor atom, score
      L1  H     8    16       P1   854  0.67
      L1  H     8    17       P1  1931  0.85

> <Gold.Goldscore.Internal.Vdw.Weighted>
-0.0523

> <Gold.Goldscore.Internal.Torsion.Weighted>
-2.7954

> <Gold.Goldscore.External.Vdw.Weighted>
32.5282

> <Gold.Goldscore.Internal.HBond.Weighted>
0.0000

> <Gold.Goldscore.External.HBond.Weighted>
5.7280

> <Gold.Goldscore.Internal.Correction.Weighted>
-2.8197

> <Gold.Protein.RotatedTorsions>
[ 3781 1176 1175 1172 ] final  -37.79 input   60.00 | X-H torsion
[ 3847 1247 1246 1244 ] final  156.70 input   60.00 | X-H torsion
[ 4507 1931 1930 1928 ] final  -59.10 input   60.00 | X-H torsion
[ 3677 1070 1069 1066 ] final  -83.18 input   60.00 | X-H torsion
[ 3525  925  924  922 ] final  -24.36 input   59.99 | X-H torsion
[ 4531 1957 1955 1953 ] final   30.76 input   60.00 | X-H torsion

> <Gold.Protein.ActiveResidues>
 PHE267  PRO268  MET310  ASP335  TRP336  MET339  TYR343  THR360  PRO361  ILE363 
 PRO371  SER374  ILE375  ASN378  PHE381  TYR383  GLN384  PHE387  LEU408  LEU417 
 MET419  LEU428  TYR466  MET469  ASN472  ASP496  VAL498  LEU499  MET503  HIS524 
 TRP525 

> <Gold.Protein.RotatedAtoms>
   -3.7508  -29.5120  -30.1132 H   0  0  0  0  0  0  0  0  0  0  0  0  # atno 3525 bound_to 925 
  -11.9854  -23.8321  -31.3382 H   0  0  0  0  0  0  0  0  0  0  0  0  # atno 3677 bound_to 1070
  -10.5083  -36.8913  -34.0735 H   0  0  0  0  0  0  0  0  0  0  0  0  # atno 3781 bound_to 1176
  -14.4309  -27.7357  -37.9326 H   0  0  0  0  0  0  0  0  0  0  0  0  # atno 3847 bound_to 1247
  -13.6796  -25.2312  -39.9044 H   0  0  0  0  0  0  0  0  0  0  0  0  # atno 4507 bound_to 1931
   -3.0796  -32.9432  -36.6544 H   0  0  0  0  0  0  0  0  0  0  0  0  # atno 4531 bound_to 1957
   -9.2429  -36.3748  -33.1904 LP  0  0  0  0  0  0  0  0  0  0  0  0  # atno 5205 bound_to 1176
  -10.3561  -37.3669  -32.5247 LP  0  0  0  0  0  0  0  0  0  0  0  0  # atno 5206 bound_to 1176
  -15.1809  -28.9602  -37.1671 LP  0  0  0  0  0  0  0  0  0  0  0  0  # atno 5215 bound_to 1247
  -15.9579  -27.5436  -37.4040 LP  0  0  0  0  0  0  0  0  0  0  0  0  # atno 5216 bound_to 1247
  -12.8806  -23.8446  -40.1990 LP  0  0  0  0  0  0  0  0  0  0  0  0  # atno 5217 bound_to 1931
  -12.6302  -24.6537  -38.8029 LP  0  0  0  0  0  0  0  0  0  0  0  0  # atno 5218 bound_to 1931
  -11.1840  -22.4677  -30.9581 LP  0  0  0  0  0  0  0  0  0  0  0  0  # atno 5224 bound_to 1070
  -12.6845  -22.7279  -30.3686 LP  0  0  0  0  0  0  0  0  0  0  0  0  # atno 5225 bound_to 1070

$$$$
IA_209.cdx|SeH_inactivess_minimized|sdf|106|dock3
  -GOLD-   4172120523D 1   1.00000     0.00000

 26 26  0  0  0  0  0  0  0  0  1 V2000
  -16.2341  -23.4589  -37.8990 C   0  0  0  0  0  0  0  0  0  0  0  0
  -15.1042  -24.1770  -37.5078 C   0  0  0  0  0  0  0  0  0  0  0  0
  -17.4739  -23.7428  -37.3262 C   0  0  0  0  0  0  0  0  0  0  0  0
  -16.4535  -25.4632  -35.9710 C   0  0  0  0  0  0  0  0  0  0  0  0
  -15.2138  -25.1792  -36.5438 C   0  0  0  0  0  0  0  0  0  0  0  0
  -17.5835  -24.7450  -36.3622 C   0  0  0  0  0  0  0  0  0  0  0  0
  -12.7557  -25.4771  -36.1201 C   0  0  0  0  0  0  0  0  0  0  0  0
  -10.5126  -25.3197  -34.1615 C   0  0  0  0  0  0  0  0  0  0  0  0
   -9.7931  -27.4615  -35.2780 C   0  0  0  0  0  0  0  0  0  0  0  0
  -10.5964  -26.1771  -35.4151 C   0  0  0  0  0  0  0  0  0  0  0  0
  -14.0830  -25.8974  -36.1542 N   0  0  0  0  0  0  0  0  0  0  0  0
  -12.3203  -24.3755  -36.4325 O   0  0  0  0  0  0  0  0  0  0  0  0
  -11.9672  -26.5034  -35.6724 O   0  0  0  0  0  0  0  0  0  0  0  0
  -19.1131  -25.0955  -35.6552 Cl  0  0  0  0  0  0  0  0  0  0  0  0
  -16.1486  -22.6785  -38.6498 H   0  0  0  0  0  0  0  0  0  0  0  0
  -14.1432  -23.9469  -37.9615 H   0  0  0  0  0  0  0  0  0  0  0  0
  -18.3453  -23.1748  -37.6408 H   0  0  0  0  0  0  0  0  0  0  0  0
  -16.5354  -26.2452  -35.2192 H   0  0  0  0  0  0  0  0  0  0  0  0
  -10.9442  -25.8353  -33.2982 H   0  0  0  0  0  0  0  0  0  0  0  0
   -9.4691  -25.0741  -33.9370 H   0  0  0  0  0  0  0  0  0  0  0  0
  -11.0369  -24.3676  -34.2991 H   0  0  0  0  0  0  0  0  0  0  0  0
   -9.8720  -28.0775  -36.1789 H   0  0  0  0  0  0  0  0  0  0  0  0
  -10.1502  -28.0449  -34.4226 H   0  0  0  0  0  0  0  0  0  0  0  0
   -8.7350  -27.2466  -35.0922 H   0  0  0  0  0  0  0  0  0  0  0  0
  -10.2286  -25.6059  -36.2738 H   0  0  0  0  0  0  0  0  0  0  0  0
  -14.2515  -26.8630  -35.8529 H   0  0  0  0  0  0  0  0  0  0  0  0
  1  2  2  0  0  0  0
  1  3  1  0  0  0  0
  2  5  1  0  0  0  0
  3  6  2  0  0  0  0
  4  5  2  0  0  0  0
  4  6  1  0  0  0  0
  5 11  1  0  0  0  0
  6 14  1  0  0  0  0
  7 11  1  0  0  0  0
  7 12  2  0  0  0  0
  7 13  1  0  0  0  0
  8 10  1  0  0  0  0
  9 10  1  0  0  0  0
 10 13  1  0  0  0  0
  1 15  1  0  0  0  0
  2 16  1  0  0  0  0
  3 17  1  0  0  0  0
  4 18  1  0  0  0  0
  8 19  1  0  0  0  0
  8 20  1  0  0  0  0
  8 21  1  0  0  0  0
  9 22  1  0  0  0  0
  9 23  1  0  0  0  0
  9 24  1  0  0  0  0
 10 25  1  0  0  0  0
 11 26  1  0  0  0  0
M  END
> <Name>
IA_209.cdx

> <SourceTag>
IA_209

> <Gold.Version>
5.2

> <Gold.Id.Protein>
6HGV|6HGV_protein|mol2

> <Gold.Goldscore.Fitness>
47.9183

> <Gold.Goldscore.Internal.Vdw>
-1.7090

> <Gold.Goldscore.Internal.Torsion>
-2.2491

> <Gold.Goldscore.External.Vdw>
34.8993

> <Gold.Goldscore.Internal.HBond>
0.0000

> <Gold.Goldscore.External.HBond>
0.0000

> <Gold.Goldscore.Internal.Correction>
-3.8898

> <Gold.Goldscore.Internal.Vdw.Weighted>
-1.7090

> <Gold.Goldscore.Internal.Torsion.Weighted>
-2.2491

> <Gold.Goldscore.External.Vdw.Weighted>
47.9866

> <Gold.Goldscore.Internal.HBond.Weighted>
0.0000

> <Gold.Goldscore.External.HBond.Weighted>
0.0000

> <Gold.Goldscore.Internal.Correction.Weighted>
-3.8898

> <Gold.Protein.RotatedTorsions>
[ 3781 1176 1175 1172 ] final   94.59 input   60.00 | X-H torsion
[ 3847 1247 1246 1244 ] final  -39.74 input   60.00 | X-H torsion
[ 4507 1931 1930 1928 ] final  -47.41 input   60.00 | X-H torsion
[ 3677 1070 1069 1066 ] final  -79.79 input   60.00 | X-H torsion
[ 3525  925  924  922 ] final -145.73 input   59.99 | X-H torsion
[ 4531 1957 1955 1953 ] final    8.87 input   60.00 | X-H torsion

> <Gold.Protein.ActiveResidues>
 PHE267  PRO268  MET310  ASP335  TRP336  MET339  TYR343  THR360  PRO361  ILE363 
 PRO371  SER374  ILE375  ASN378  PHE381  TYR383  GLN384  PHE387  LEU408  LEU417 
 MET419  LEU428  TYR466  MET469  ASN472  ASP496  VAL498  LEU499  MET503  HIS524 
 TRP525 

> <Gold.Protein.RotatedAtoms>
   -2.6418  -30.0915  -29.0646 H   0  0  0  0  0  0  0  0  0  0  0  0  # atno 3525 bound_to 925 
  -12.0362  -23.8395  -31.3174 H   0  0  0  0  0  0  0  0  0  0  0  0  # atno 3677 bound_to 1070
  -10.1892  -37.2908  -32.4386 H   0  0  0  0  0  0  0  0  0  0  0  0  # atno 3781 bound_to 1176
  -16.0416  -28.1795  -37.1307 H   0  0  0  0  0  0  0  0  0  0  0  0  # atno 3847 bound_to 1247
  -13.6378  -25.3116  -39.7367 H   0  0  0  0  0  0  0  0  0  0  0  0  # atno 4507 bound_to 1931
   -2.9446  -32.6149  -36.6743 H   0  0  0  0  0  0  0  0  0  0  0  0  # atno 4531 bound_to 1957
  -10.6396  -37.0120  -33.9772 LP  0  0  0  0  0  0  0  0  0  0  0  0  # atno 5205 bound_to 1176
   -9.2808  -36.3274  -33.3844 LP  0  0  0  0  0  0  0  0  0  0  0  0  # atno 5206 bound_to 1176
  -14.9439  -27.2643  -37.9089 LP  0  0  0  0  0  0  0  0  0  0  0  0  # atno 5215 bound_to 1247
  -14.5729  -28.7927  -37.4698 LP  0  0  0  0  0  0  0  0  0  0  0  0  # atno 5216 bound_to 1247
  -13.0078  -23.9277  -40.3163 LP  0  0  0  0  0  0  0  0  0  0  0  0  # atno 5217 bound_to 1931
  -12.5451  -24.4896  -38.8545 LP  0  0  0  0  0  0  0  0  0  0  0  0  # atno 5218 bound_to 1931
  -11.1615  -22.5066  -30.9913 LP  0  0  0  0  0  0  0  0  0  0  0  0  # atno 5224 bound_to 1070
  -12.6557  -22.6816  -30.3563 LP  0  0  0  0  0  0  0  0  0  0  0  0  # atno 5225 bound_to 1070

$$$$
IA_199.cdx|SeH_inactivess_minimized|sdf|97|dock1
  -GOLD-   4172120343D 1   1.00000     0.00000

 31 31  0  0  0  0  0  0  0  0  3 V2000
  -10.3360  -27.7829  -36.2838 C   0  0  0  0  0  0  0  0  0  0  0  0
   -9.6201  -25.9709  -34.8551 C   0  0  0  0  0  0  0  0  0  0  0  0
  -11.5046  -27.0835  -36.5853 C   0  0  0  0  0  0  0  0  0  0  0  0
  -10.7886  -25.2714  -35.1567 C   0  0  0  0  0  0  0  0  0  0  0  0
   -9.3938  -27.2266  -35.4186 C   0  0  0  0  0  0  0  0  0  0  0  0
  -11.7309  -25.8278  -36.0218 C   0  0  0  0  0  0  0  0  0  0  0  0
  -17.4534  -24.6770  -36.5833 C   0  0  0  0  0  0  0  0  0  0  0  0
  -17.4709  -24.0609  -37.7803 C   0  0  0  0  0  0  0  0  0  0  0  0
  -14.0485  -25.7688  -35.8777 C   0  0  0  0  0  0  0  0  0  0  0  0
  -18.6279  -23.1754  -38.1625 C   0  0  0  0  0  0  0  0  0  0  0  0
  -16.4035  -24.1684  -38.8322 C   0  0  0  0  0  0  0  0  0  0  0  0
  -16.4010  -25.5828  -36.0251 C   0  0  0  0  0  0  0  0  0  0  0  0
   -8.2043  -27.9385  -35.1112 N   0  3  0  0  0  0  0  0  0  0  0  0
   -7.3849  -27.4341  -34.3056 O   0  5  0  0  0  0  0  0  0  0  0  0
  -14.1012  -26.8482  -35.3019 O   0  0  0  0  0  0  0  0  0  0  0  0
   -8.0052  -29.0525  -35.6531 O   0  0  0  0  0  0  0  0  0  0  0  0
  -12.9015  -25.1271  -36.3240 O   0  0  0  0  0  0  0  0  0  0  0  0
  -15.1217  -24.9830  -36.1925 O   0  0  0  0  0  0  0  0  0  0  0  0
  -10.1719  -28.7607  -36.7300 H   0  0  0  0  0  0  0  0  0  0  0  0
   -8.8945  -25.5258  -34.1788 H   0  0  0  0  0  0  0  0  0  0  0  0
  -12.2347  -27.5220  -37.2602 H   0  0  0  0  0  0  0  0  0  0  0  0
  -10.9595  -24.2938  -34.7144 H   0  0  0  0  0  0  0  0  0  0  0  0
  -18.2947  -24.5085  -35.9116 H   0  0  0  0  0  0  0  0  0  0  0  0
  -18.2748  -22.1608  -38.3739 H   0  0  0  0  0  0  0  0  0  0  0  0
  -19.1234  -23.5650  -39.0578 H   0  0  0  0  0  0  0  0  0  0  0  0
  -19.3808  -23.1056  -37.3705 H   0  0  0  0  0  0  0  0  0  0  0  0
  -15.9196  -23.1965  -38.9761 H   0  0  0  0  0  0  0  0  0  0  0  0
  -15.6196  -24.8884  -38.5914 H   0  0  0  0  0  0  0  0  0  0  0  0
  -16.8464  -24.4761  -39.7855 H   0  0  0  0  0  0  0  0  0  0  0  0
  -16.4030  -26.5262  -36.5802 H   0  0  0  0  0  0  0  0  0  0  0  0
  -16.5276  -25.8215  -34.9680 H   0  0  0  0  0  0  0  0  0  0  0  0
  1  3  1  0  0  0  0
  1  5  2  0  0  0  0
  2  4  2  0  0  0  0
  2  5  1  0  0  0  0
  3  6  2  0  0  0  0
  4  6  1  0  0  0  0
  5 13  1  0  0  0  0
  6 17  1  0  0  0  0
  7  8  2  0  0  0  0
  7 12  1  0  0  0  0
  8 10  1  0  0  0  0
  8 11  1  0  0  0  0
  9 15  2  0  0  0  0
  9 17  1  0  0  0  0
  9 18  1  0  0  0  0
 12 18  1  0  0  0  0
 13 14  1  0  0  0  0
 13 16  2  0  0  0  0
  1 19  1  0  0  0  0
  2 20  1  0  0  0  0
  3 21  1  0  0  0  0
  4 22  1  0  0  0  0
  7 23  1  0  0  0  0
 10 24  1  0  0  0  0
 10 25  1  0  0  0  0
 10 26  1  0  0  0  0
 11 27  1  0  0  0  0
 11 28  1  0  0  0  0
 11 29  1  0  0  0  0
 12 30  1  0  0  0  0
 12 31  1  0  0  0  0
M  CHG  1  13   1
M  CHG  1  14  -1
M  END
> <Name>
IA_199.cdx

> <SourceTag>
IA_199

> <Gold.Version>
5.2

> <Gold.Id.Protein>
6HGV|6HGV_protein|mol2

> <Gold.Goldscore.Fitness>
53.6190

> <Gold.Goldscore.Internal.Vdw>
-1.4270

> <Gold.Goldscore.Internal.Torsion>
-3.8791

> <Gold.Goldscore.External.Vdw>
37.9631

> <Gold.Goldscore.Internal.HBond>
0.0000

> <Gold.Goldscore.External.HBond>
1.6804

> <Gold.Goldscore.Internal.Correction>
-5.0455

> <Gold.Goldscore.Hbonds>
donor molecule, donor type, donor heavy atom, donor atom, acceptor molecule, acceptor atom, score
      P1  H  1931  4507       L1    17  0.84

> <Gold.Goldscore.Internal.Vdw.Weighted>
-1.4270

> <Gold.Goldscore.Internal.Torsion.Weighted>
-3.8791

> <Gold.Goldscore.External.Vdw.Weighted>
52.1993

> <Gold.Goldscore.Internal.HBond.Weighted>
0.0000

> <Gold.Goldscore.External.HBond.Weighted>
1.6804

> <Gold.Goldscore.Internal.Correction.Weighted>
-5.0455

> <Gold.Protein.RotatedTorsions>
[ 3781 1176 1175 1172 ] final  -81.26 input   60.00 | X-H torsion
[ 3847 1247 1246 1244 ] final   94.39 input   60.00 | X-H torsion
[ 4507 1931 1930 1928 ] final   45.64 input   60.00 | X-H torsion
[ 3677 1070 1069 1066 ] final -131.02 input   60.00 | X-H torsion
[ 3525  925  924  922 ] final   28.51 input   59.99 | X-H torsion
[ 4531 1957 1955 1953 ] final  136.15 input   60.00 | X-H torsion

> <Gold.Protein.ActiveResidues>
 PHE267  PRO268  MET310  ASP335  TRP336  MET339  TYR343  THR360  PRO361  ILE363 
 PRO371  SER374  ILE375  ASN378  PHE381  TYR383  GLN384  PHE387  LEU408  LEU417 
 MET419  LEU428  TYR466  MET469  ASN472  ASP496  VAL498  LEU499  MET503  HIS524 
 TRP525 

> <Gold.Protein.RotatedAtoms>
   -3.2662  -29.6628  -30.7744 H   0  0  0  0  0  0  0  0  0  0  0  0  # atno 3525 bound_to 925 
  -11.3363  -23.4519  -31.4407 H   0  0  0  0  0  0  0  0  0  0  0  0  # atno 3677 bound_to 1070
   -9.9397  -36.4966  -34.1144 H   0  0  0  0  0  0  0  0  0  0  0  0  # atno 3781 bound_to 1176
  -14.4422  -28.6390  -37.5827 H   0  0  0  0  0  0  0  0  0  0  0  0  # atno 3847 bound_to 1247
  -12.7683  -24.8616  -38.7946 H   0  0  0  0  0  0  0  0  0  0  0  0  # atno 4507 bound_to 1931
   -2.1211  -34.0654  -36.8560 H   0  0  0  0  0  0  0  0  0  0  0  0  # atno 4531 bound_to 1957
   -9.3985  -36.7022  -32.5936 LP  0  0  0  0  0  0  0  0  0  0  0  0  # atno 5205 bound_to 1176
  -10.7732  -37.4370  -33.0804 LP  0  0  0  0  0  0  0  0  0  0  0  0  # atno 5206 bound_to 1176
  -15.9685  -28.3917  -37.0755 LP  0  0  0  0  0  0  0  0  0  0  0  0  # atno 5215 bound_to 1247
  -15.1590  -27.2024  -37.8481 LP  0  0  0  0  0  0  0  0  0  0  0  0  # atno 5216 bound_to 1247
  -13.7019  -25.0884  -40.1080 LP  0  0  0  0  0  0  0  0  0  0  0  0  # atno 5217 bound_to 1931
  -12.7267  -23.7821  -40.0116 LP  0  0  0  0  0  0  0  0  0  0  0  0  # atno 5218 bound_to 1931
  -11.7350  -22.1717  -30.5186 LP  0  0  0  0  0  0  0  0  0  0  0  0  # atno 5224 bound_to 1070
  -12.7870  -23.4067  -30.7048 LP  0  0  0  0  0  0  0  0  0  0  0  0  # atno 5225 bound_to 1070

$$$$
IA_124.cdx|SeH_inactivess_minimized|sdf|25|dock3
  -GOLD-   4172119 53D 1   1.00000     0.00000

 28 28  0  0  0  0  0  0  0  0  1 V2000
   -9.9301  -27.0000  -34.8251 C   0  0  0  0  0  0  0  0  0  0  0  0
  -10.1320  -25.6216  -34.7546 C   0  0  0  0  0  0  0  0  0  0  0  0
  -10.9901  -27.8441  -35.1562 C   0  0  0  0  0  0  0  0  0  0  0  0
  -11.3940  -25.0874  -35.0152 C   0  0  0  0  0  0  0  0  0  0  0  0
  -12.2519  -27.3099  -35.4167 C   0  0  0  0  0  0  0  0  0  0  0  0
  -12.4539  -25.9316  -35.3463 C   0  0  0  0  0  0  0  0  0  0  0  0
  -15.8623  -22.9596  -38.6595 C   0  0  0  0  0  0  0  0  0  0  0  0
  -14.9814  -25.9638  -35.3714 C   0  0  0  0  0  0  0  0  0  0  0  0
  -17.4282  -25.4420  -35.4549 C   0  0  0  0  0  0  0  0  0  0  0  0
  -16.0301  -24.2264  -37.8671 C   0  0  0  0  0  0  0  0  0  0  0  0
  -13.7331  -25.3897  -35.6105 N   0  0  0  0  0  0  0  0  0  0  0  0
  -16.0387  -25.1492  -35.7551 N   0  0  0  0  0  0  0  0  0  0  0  0
  -16.2149  -22.7881  -39.8167 O   0  0  0  0  0  0  0  0  0  0  0  0
  -15.1697  -27.0756  -34.8764 O   0  0  0  0  0  0  0  0  0  0  0  0
  -15.2555  -22.0107  -37.9028 O   0  0  0  0  0  0  0  0  0  0  0  0
  -15.8768  -23.9501  -36.4772 O   0  0  0  0  0  0  0  0  0  0  0  0
   -8.9475  -27.4162  -34.6230 H   0  0  0  0  0  0  0  0  0  0  0  0
   -9.3069  -24.9640  -34.4978 H   0  0  0  0  0  0  0  0  0  0  0  0
  -10.8322  -28.9173  -35.2119 H   0  0  0  0  0  0  0  0  0  0  0  0
  -11.5395  -24.0116  -34.9574 H   0  0  0  0  0  0  0  0  0  0  0  0
  -13.0706  -27.9776  -35.6738 H   0  0  0  0  0  0  0  0  0  0  0  0
  -17.7599  -26.3142  -36.0244 H   0  0  0  0  0  0  0  0  0  0  0  0
  -18.0596  -24.5891  -35.7180 H   0  0  0  0  0  0  0  0  0  0  0  0
  -17.5485  -25.6515  -34.3886 H   0  0  0  0  0  0  0  0  0  0  0  0
  -15.2586  -24.9427  -38.1612 H   0  0  0  0  0  0  0  0  0  0  0  0
  -17.0239  -24.6488  -38.0384 H   0  0  0  0  0  0  0  0  0  0  0  0
  -13.7410  -24.4577  -36.0163 H   0  0  0  0  0  0  0  0  0  0  0  0
  -15.0670  -21.1972  -38.4179 H   0  0  0  0  0  0  0  0  0  0  0  0
  1  2  2  0  0  0  0
  1  3  1  0  0  0  0
  2  4  1  0  0  0  0
  3  5  2  0  0  0  0
  4  6  2  0  0  0  0
  5  6  1  0  0  0  0
  6 11  1  0  0  0  0
  7 10  1  0  0  0  0
  7 13  2  0  0  0  0
  7 15  1  0  0  0  0
  8 11  1  0  0  0  0
  8 12  1  0  0  0  0
  8 14  2  0  0  0  0
  9 12  1  0  0  0  0
 10 16  1  0  0  0  0
 12 16  1  0  0  0  0
  1 17  1  0  0  0  0
  2 18  1  0  0  0  0
  3 19  1  0  0  0  0
  4 20  1  0  0  0  0
  5 21  1  0  0  0  0
  9 22  1  0  0  0  0
  9 23  1  0  0  0  0
  9 24  1  0  0  0  0
 10 25  1  0  0  0  0
 10 26  1  0  0  0  0
 11 27  1  0  0  0  0
 15 28  1  0  0  0  0
M  END
> <Name>
IA_124.cdx

> <SourceTag>
IA_124

> <Gold.Version>
5.2

> <Gold.Id.Protein>
6HGV|6HGV_protein|mol2

> <Gold.Goldscore.Fitness>
46.2182

> <Gold.Goldscore.Internal.Vdw>
-1.8312

> <Gold.Goldscore.Internal.Torsion>
-3.8062

> <Gold.Goldscore.External.Vdw>
33.3509

> <Gold.Goldscore.Internal.HBond>
0.0000

> <Gold.Goldscore.External.HBond>
1.6282

> <Gold.Goldscore.Internal.Correction>
-4.3699

> <Gold.Goldscore.Hbonds>
donor molecule, donor type, donor heavy atom, donor atom, acceptor molecule, acceptor atom, score
      L1  H    11    27       P1   853  0.03
      L1  H    15    28       P1   302  0.72

> <Gold.Goldscore.Internal.Vdw.Weighted>
-1.8312

> <Gold.Goldscore.Internal.Torsion.Weighted>
-3.8062

> <Gold.Goldscore.External.Vdw.Weighted>
45.8575

> <Gold.Goldscore.Internal.HBond.Weighted>
0.0000

> <Gold.Goldscore.External.HBond.Weighted>
1.6282

> <Gold.Goldscore.Internal.Correction.Weighted>
-4.3699

> <Gold.Protein.RotatedTorsions>
[ 3781 1176 1175 1172 ] final -167.53 input   60.00 | X-H torsion
[ 3847 1247 1246 1244 ] final  -70.72 input   60.00 | X-H torsion
[ 4507 1931 1930 1928 ] final   48.98 input   60.00 | X-H torsion
[ 3677 1070 1069 1066 ] final  -93.29 input   60.00 | X-H torsion
[ 3525  925  924  922 ] final   13.62 input   59.99 | X-H torsion
[ 4531 1957 1955 1953 ] final    1.19 input   60.00 | X-H torsion

> <Gold.Protein.ActiveResidues>
 PHE267  PRO268  MET310  ASP335  TRP336  MET339  TYR343  THR360  PRO361  ILE363 
 PRO371  SER374  ILE375  ASN378  PHE381  TYR383  GLN384  PHE387  LEU408  LEU417 
 MET419  LEU428  TYR466  MET469  ASN472  ASP496  VAL498  LEU499  MET503  HIS524 
 TRP525 

> <Gold.Protein.RotatedAtoms>
   -3.4556  -29.5926  -30.6401 H   0  0  0  0  0  0  0  0  0  0  0  0  # atno 3525 bound_to 925 
  -11.8339  -23.7932  -31.3905 H   0  0  0  0  0  0  0  0  0  0  0  0  # atno 3677 bound_to 1070
   -9.2434  -36.4337  -33.0419 H   0  0  0  0  0  0  0  0  0  0  0  0  # atno 3781 bound_to 1176
  -16.0294  -27.7142  -37.3134 H   0  0  0  0  0  0  0  0  0  0  0  0  # atno 3847 bound_to 1247
  -12.7362  -24.8174  -38.7928 H   0  0  0  0  0  0  0  0  0  0  0  0  # atno 4507 bound_to 1931
   -2.8697  -32.5152  -36.6869 H   0  0  0  0  0  0  0  0  0  0  0  0  # atno 4531 bound_to 1957
  -10.4757  -37.4101  -32.6222 LP  0  0  0  0  0  0  0  0  0  0  0  0  # atno 5205 bound_to 1176
  -10.3973  -36.7924  -34.1318 LP  0  0  0  0  0  0  0  0  0  0  0  0  # atno 5206 bound_to 1176
  -14.5408  -27.5627  -37.9530 LP  0  0  0  0  0  0  0  0  0  0  0  0  # atno 5215 bound_to 1247
  -14.9883  -28.9628  -37.2417 LP  0  0  0  0  0  0  0  0  0  0  0  0  # atno 5216 bound_to 1247
  -13.7022  -25.1239  -40.0660 LP  0  0  0  0  0  0  0  0  0  0  0  0  # atno 5217 bound_to 1931
  -12.7587  -23.7911  -40.0554 LP  0  0  0  0  0  0  0  0  0  0  0  0  # atno 5218 bound_to 1931
  -11.2666  -22.3639  -30.8584 LP  0  0  0  0  0  0  0  0  0  0  0  0  # atno 5224 bound_to 1070
  -12.7544  -22.8709  -30.4157 LP  0  0  0  0  0  0  0  0  0  0  0  0  # atno 5225 bound_to 1070

$$$$
IA_23|SeH_inactivess_minimized|sdf|111|dock1
  -GOLD-   4172120593D 1   1.00000     0.00000

 67 70  0  0  0  0  0  0  0  0  1 V2000
  -20.4797  -23.7379  -37.5738 C   0  0  0  0  0  0  0  0  0  0  0  0
  -21.0914  -23.0316  -39.4863 C   0  0  0  0  0  0  0  0  0  0  0  0
  -19.3196  -23.5750  -38.2937 C   0  0  0  0  0  0  0  0  0  0  0  0
  -15.1394  -24.9641  -37.2865 C   0  0  0  0  0  0  0  0  0  0  0  0
  -16.8609  -25.1205  -39.8237 C   0  0  0  0  0  0  0  0  0  0  0  0
   -8.0641  -28.2752  -34.4214 C   0  0  0  0  0  0  0  0  0  0  0  0
   -5.0911  -32.4895  -35.5666 C   0  0  0  0  0  0  0  0  0  0  0  0
   -5.8220  -32.9308  -33.2086 C   0  0  0  0  0  0  0  0  0  0  0  0
   -4.2293  -31.0564  -33.6976 C   0  0  0  0  0  0  0  0  0  0  0  0
   -7.4461  -31.9854  -34.8687 C   0  0  0  0  0  0  0  0  0  0  0  0
   -5.8516  -30.1092  -35.3582 C   0  0  0  0  0  0  0  0  0  0  0  0
   -6.5833  -30.5507  -32.9963 C   0  0  0  0  0  0  0  0  0  0  0  0
   -6.2622  -32.9498  -34.6823 C   0  0  0  0  0  0  0  0  0  0  0  0
   -4.6611  -31.0660  -35.1738 C   0  0  0  0  0  0  0  0  0  0  0  0
   -5.3958  -31.5095  -32.8031 C   0  0  0  0  0  0  0  0  0  0  0  0
   -7.0380  -30.5492  -34.4719 C   0  0  0  0  0  0  0  0  0  0  0  0
  -17.8671  -23.8016  -37.9497 C   0  0  0  0  0  0  0  0  0  0  0  0
  -14.2460  -25.6697  -36.2801 C   0  0  0  0  0  0  0  0  0  0  0  0
  -12.7546  -25.4118  -36.4928 C   0  0  0  0  0  0  0  0  0  0  0  0
  -11.8374  -25.9962  -35.4109 C   0  0  0  0  0  0  0  0  0  0  0  0
  -10.3616  -25.6287  -35.5985 C   0  0  0  0  0  0  0  0  0  0  0  0
   -9.4705  -26.2214  -34.5106 C   0  0  0  0  0  0  0  0  0  0  0  0
  -17.3566  -25.1810  -38.3863 C   0  0  2  0  0  0  0  0  0  0  0  0
  -21.5790  -23.3979  -38.3218 N   0  0  0  0  0  0  0  0  0  0  0  0
  -19.7276  -23.1221  -39.5167 N   0  0  0  0  0  0  0  0  0  0  0  0
  -16.3219  -25.6578  -37.4984 N   0  0  0  0  0  0  0  0  0  0  0  0
   -8.1525  -29.6445  -34.6505 N   0  0  0  0  0  0  0  0  0  0  0  0
   -9.2805  -27.6440  -34.6694 N   0  0  0  0  0  0  0  0  0  0  0  0
  -14.8447  -23.8951  -37.8144 O   0  0  0  0  0  0  0  0  0  0  0  0
  -15.6750  -25.2062  -40.1250 O   0  0  0  0  0  0  0  0  0  0  0  0
   -7.0454  -27.6948  -34.0486 O   0  0  0  0  0  0  0  0  0  0  0  0
  -17.8334  -24.9722  -40.7551 O   0  0  0  0  0  0  0  0  0  0  0  0
  -20.5819  -24.0823  -36.5546 H   0  0  0  0  0  0  0  0  0  0  0  0
  -21.6637  -22.6944  -40.3386 H   0  0  0  0  0  0  0  0  0  0  0  0
   -4.2458  -33.1800  -35.4571 H   0  0  0  0  0  0  0  0  0  0  0  0
   -5.3870  -32.5135  -36.6226 H   0  0  0  0  0  0  0  0  0  0  0  0
   -6.6441  -33.2722  -32.5676 H   0  0  0  0  0  0  0  0  0  0  0  0
   -4.9892  -33.6287  -33.0578 H   0  0  0  0  0  0  0  0  0  0  0  0
   -3.3684  -31.7212  -33.5547 H   0  0  0  0  0  0  0  0  0  0  0  0
   -3.9049  -30.0491  -33.4088 H   0  0  0  0  0  0  0  0  0  0  0  0
   -7.7848  -32.0101  -35.9129 H   0  0  0  0  0  0  0  0  0  0  0  0
   -8.2979  -32.3193  -34.2615 H   0  0  0  0  0  0  0  0  0  0  0  0
   -5.5486  -29.0846  -35.1054 H   0  0  0  0  0  0  0  0  0  0  0  0
   -6.1533  -30.0886  -36.4137 H   0  0  0  0  0  0  0  0  0  0  0  0
   -7.4136  -30.8495  -32.3433 H   0  0  0  0  0  0  0  0  0  0  0  0
   -6.2968  -29.5374  -32.6850 H   0  0  0  0  0  0  0  0  0  0  0  0
   -6.5635  -33.9645  -34.9654 H   0  0  0  0  0  0  0  0  0  0  0  0
   -3.8261  -30.7440  -35.8058 H   0  0  0  0  0  0  0  0  0  0  0  0
   -5.0816  -31.5026  -31.7535 H   0  0  0  0  0  0  0  0  0  0  0  0
  -17.7508  -23.6758  -36.8650 H   0  0  0  0  0  0  0  0  0  0  0  0
  -17.2518  -23.0107  -38.3999 H   0  0  0  0  0  0  0  0  0  0  0  0
  -14.5289  -25.2928  -35.2892 H   0  0  0  0  0  0  0  0  0  0  0  0
  -14.4603  -26.7433  -36.2849 H   0  0  0  0  0  0  0  0  0  0  0  0
  -12.4486  -25.8197  -37.4642 H   0  0  0  0  0  0  0  0  0  0  0  0
  -12.5914  -24.3283  -36.5466 H   0  0  0  0  0  0  0  0  0  0  0  0
  -11.9384  -27.0884  -35.4381 H   0  0  0  0  0  0  0  0  0  0  0  0
  -12.1785  -25.6775  -34.4198 H   0  0  0  0  0  0  0  0  0  0  0  0
  -10.0184  -26.0006  -36.5713 H   0  0  0  0  0  0  0  0  0  0  0  0
  -10.2436  -24.5393  -35.6052 H   0  0  0  0  0  0  0  0  0  0  0  0
   -8.4830  -25.7494  -34.5038 H   0  0  0  0  0  0  0  0  0  0  0  0
   -9.9278  -26.0676  -33.5279 H   0  0  0  0  0  0  0  0  0  0  0  0
  -18.1554  -25.9309  -38.3554 H   0  0  0  0  0  0  0  0  0  0  0  0
  -19.1324  -22.8947  -40.3025 H   0  0  0  0  0  0  0  0  0  0  0  0
  -16.4634  -26.5554  -37.0444 H   0  0  0  0  0  0  0  0  0  0  0  0
   -9.0406  -30.0267  -34.9573 H   0  0  0  0  0  0  0  0  0  0  0  0
  -10.0562  -28.1978  -35.0189 H   0  0  0  0  0  0  0  0  0  0  0  0
  -17.5146  -24.9378  -41.6815 H   0  0  0  0  0  0  0  0  0  0  0  0
  1  3  2  0  0  0  0
  1 24  1  0  0  0  0
  2 24  2  0  0  0  0
  2 25  1  0  0  0  0
  3 17  1  0  0  0  0
  3 25  1  0  0  0  0
  4 18  1  0  0  0  0
  4 26  1  0  0  0  0
  4 29  2  0  0  0  0
  5 23  1  0  0  0  0
  5 30  2  0  0  0  0
  5 32  1  0  0  0  0
  6 27  1  0  0  0  0
  6 28  1  0  0  0  0
  6 31  2  0  0  0  0
  7 13  1  0  0  0  0
  7 14  1  0  0  0  0
  8 13  1  0  0  0  0
  8 15  1  0  0  0  0
  9 14  1  0  0  0  0
  9 15  1  0  0  0  0
 10 13  1  0  0  0  0
 10 16  1  0  0  0  0
 11 14  1  0  0  0  0
 11 16  1  0  0  0  0
 12 15  1  0  0  0  0
 12 16  1  0  0  0  0
 16 27  1  0  0  0  0
 17 23  1  0  0  0  0
 18 19  1  0  0  0  0
 19 20  1  0  0  0  0
 20 21  1  0  0  0  0
 21 22  1  0  0  0  0
 22 28  1  0  0  0  0
 23 26  1  0  0  0  0
  1 33  1  0  0  0  0
  2 34  1  0  0  0  0
  7 35  1  0  0  0  0
  7 36  1  0  0  0  0
  8 37  1  0  0  0  0
  8 38  1  0  0  0  0
  9 39  1  0  0  0  0
  9 40  1  0  0  0  0
 10 41  1  0  0  0  0
 10 42  1  0  0  0  0
 11 43  1  0  0  0  0
 11 44  1  0  0  0  0
 12 45  1  0  0  0  0
 12 46  1  0  0  0  0
 13 47  1  0  0  0  0
 14 48  1  0  0  0  0
 15 49  1  0  0  0  0
 17 50  1  0  0  0  0
 17 51  1  0  0  0  0
 18 52  1  0  0  0  0
 18 53  1  0  0  0  0
 19 54  1  0  0  0  0
 19 55  1  0  0  0  0
 20 56  1  0  0  0  0
 20 57  1  0  0  0  0
 21 58  1  0  0  0  0
 21 59  1  0  0  0  0
 22 60  1  0  0  0  0
 22 61  1  0  0  0  0
 23 62  1  0  0  0  0
 25 63  1  0  0  0  0
 26 64  1  0  0  0  0
 27 65  1  0  0  0  0
 28 66  1  0  0  0  0
 32 67  1  0  0  0  0
M  END
> <Name>
IA_23

> <SourceTag>
IA_22

> <Gold.Version>
5.2

> <Gold.Id.Protein>
6HGV|6HGV_protein|mol2

> <Gold.Goldscore.Fitness>
75.8273

> <Gold.Goldscore.Internal.Vdw>
-3.8903

> <Gold.Goldscore.Internal.Torsion>
-5.3611

> <Gold.Goldscore.External.Vdw>
56.2850

> <Gold.Goldscore.Internal.HBond>
0.0000

> <Gold.Goldscore.External.HBond>
0.9718

> <Gold.Goldscore.Internal.Correction>
-6.7150

> <Gold.Goldscore.Hbonds>
donor molecule, donor type, donor heavy atom, donor atom, acceptor molecule, acceptor atom, score
      P1  H  1931  4507       L1    30  0.49

> <Gold.Goldscore.Internal.Vdw.Weighted>
-3.8903

> <Gold.Goldscore.Internal.Torsion.Weighted>
-5.3611

> <Gold.Goldscore.External.Vdw.Weighted>
77.3918

> <Gold.Goldscore.Internal.HBond.Weighted>
0.0000

> <Gold.Goldscore.External.HBond.Weighted>
0.9718

> <Gold.Goldscore.Internal.Correction.Weighted>
-6.7150

> <Gold.Protein.RotatedTorsions>
[ 3781 1176 1175 1172 ] final   -9.01 input   60.00 | X-H torsion
[ 3847 1247 1246 1244 ] final   69.34 input   60.00 | X-H torsion
[ 4507 1931 1930 1928 ] final  -78.95 input   60.00 | X-H torsion
[ 3677 1070 1069 1066 ] final -122.26 input   60.00 | X-H torsion
[ 3525  925  924  922 ] final    5.56 input   59.99 | X-H torsion
[ 4531 1957 1955 1953 ] final  -96.95 input   60.00 | X-H torsion

> <Gold.Protein.ActiveResidues>
 PHE267  PRO268  MET310  ASP335  TRP336  MET339  TYR343  THR360  PRO361  ILE363 
 PRO371  SER374  ILE375  ASN378  PHE381  TYR383  GLN384  PHE387  LEU408  LEU417 
 MET419  LEU428  TYR466  MET469  ASN472  ASP496  VAL498  LEU499  MET503  HIS524 
 TRP525 

> <Gold.Protein.RotatedAtoms>
   -3.5436  -29.5627  -30.5470 H   0  0  0  0  0  0  0  0  0  0  0  0  # atno 3525 bound_to 925 
  -11.4353  -23.5546  -31.4506 H   0  0  0  0  0  0  0  0  0  0  0  0  # atno 3677 bound_to 1070
  -10.7573  -37.1636  -33.7899 H   0  0  0  0  0  0  0  0  0  0  0  0  # atno 3781 bound_to 1176
  -14.7088  -28.8750  -37.3877 H   0  0  0  0  0  0  0  0  0  0  0  0  # atno 3847 bound_to 1247
  -13.6918  -25.0349  -40.1603 H   0  0  0  0  0  0  0  0  0  0  0  0  # atno 4507 bound_to 1931
   -1.4798  -32.5209  -36.9512 H   0  0  0  0  0  0  0  0  0  0  0  0  # atno 4531 bound_to 1957
   -9.3846  -36.3042  -33.6314 LP  0  0  0  0  0  0  0  0  0  0  0  0  # atno 5205 bound_to 1176
   -9.9638  -37.1633  -32.3693 LP  0  0  0  0  0  0  0  0  0  0  0  0  # atno 5206 bound_to 1176
  -16.0718  -28.0105  -37.1808 LP  0  0  0  0  0  0  0  0  0  0  0  0  # atno 5215 bound_to 1247
  -14.7872  -27.3460  -37.9391 LP  0  0  0  0  0  0  0  0  0  0  0  0  # atno 5216 bound_to 1247
  -12.6846  -23.7743  -39.9494 LP  0  0  0  0  0  0  0  0  0  0  0  0  # atno 5217 bound_to 1931
  -12.8140  -24.9217  -38.7948 LP  0  0  0  0  0  0  0  0  0  0  0  0  # atno 5218 bound_to 1931
  -11.6098  -22.1856  -30.5881 LP  0  0  0  0  0  0  0  0  0  0  0  0  # atno 5224 bound_to 1070
  -12.8126  -23.2895  -30.6254 LP  0  0  0  0  0  0  0  0  0  0  0  0  # atno 5225 bound_to 1070

$$$$
IA_125.cdx|SeH_inactivess_minimized|sdf|26|dock6
  -GOLD-   4172119 63D 1   1.00000     0.00000

 28 28  0  0  0  0  0  0  0  0  1 V2000
   -8.9809  -27.1002  -34.9827 C   0  0  0  0  0  0  0  0  0  0  0  0
   -9.3311  -25.8550  -34.4605 C   0  0  0  0  0  0  0  0  0  0  0  0
   -9.6971  -27.6335  -36.0544 C   0  0  0  0  0  0  0  0  0  0  0  0
  -10.3975  -25.1433  -35.0099 C   0  0  0  0  0  0  0  0  0  0  0  0
  -10.7635  -26.9217  -36.6037 C   0  0  0  0  0  0  0  0  0  0  0  0
  -11.1136  -25.6766  -36.0816 C   0  0  0  0  0  0  0  0  0  0  0  0
  -13.3182  -25.4637  -37.2964 C   0  0  0  0  0  0  0  0  0  0  0  0
  -18.8496  -25.1382  -37.2171 C   0  0  0  0  0  0  0  0  0  0  0  0
  -15.4005  -24.6364  -38.4045 C   0  0  0  0  0  0  0  0  0  0  0  0
  -16.5365  -24.7685  -37.4068 C   0  0  0  0  0  0  0  0  0  0  0  0
  -12.1802  -24.9644  -36.6311 N   0  0  0  0  0  0  0  0  0  0  0  0
  -14.1583  -24.4206  -37.6990 N   0  0  0  0  0  0  0  0  0  0  0  0
  -13.5682  -26.6477  -37.5094 O   0  0  0  0  0  0  0  0  0  0  0  0
  -17.7336  -25.1055  -38.0962 O   0  0  0  0  0  0  0  0  0  0  0  0
   -8.1502  -27.6544  -34.5556 H   0  0  0  0  0  0  0  0  0  0  0  0
   -8.7731  -25.4391  -33.6268 H   0  0  0  0  0  0  0  0  0  0  0  0
   -9.4235  -28.6027  -36.4614 H   0  0  0  0  0  0  0  0  0  0  0  0
  -10.6611  -24.1738  -34.5948 H   0  0  0  0  0  0  0  0  0  0  0  0
  -11.3143  -27.3474  -37.4388 H   0  0  0  0  0  0  0  0  0  0  0  0
  -18.6469  -25.8292  -36.3953 H   0  0  0  0  0  0  0  0  0  0  0  0
  -19.7380  -25.4594  -37.7667 H   0  0  0  0  0  0  0  0  0  0  0  0
  -19.0149  -24.1358  -36.8151 H   0  0  0  0  0  0  0  0  0  0  0  0
  -15.2976  -25.5420  -39.0109 H   0  0  0  0  0  0  0  0  0  0  0  0
  -15.5709  -23.7807  -39.0648 H   0  0  0  0  0  0  0  0  0  0  0  0
  -16.6985  -23.8148  -36.8949 H   0  0  0  0  0  0  0  0  0  0  0  0
  -16.3295  -25.5431  -36.6613 H   0  0  0  0  0  0  0  0  0  0  0  0
  -12.1446  -23.9431  -36.5464 H   0  0  0  0  0  0  0  0  0  0  0  0
  -13.8825  -23.4674  -37.4855 H   0  0  0  0  0  0  0  0  0  0  0  0
  1  2  2  0  0  0  0
  1  3  1  0  0  0  0
  2  4  1  0  0  0  0
  3  5  2  0  0  0  0
  4  6  2  0  0  0  0
  5  6  1  0  0  0  0
  6 11  1  0  0  0  0
  7 11  1  0  0  0  0
  7 12  1  0  0  0  0
  7 13  2  0  0  0  0
  8 14  1  0  0  0  0
  9 10  1  0  0  0  0
  9 12  1  0  0  0  0
 10 14  1  0  0  0  0
  1 15  1  0  0  0  0
  2 16  1  0  0  0  0
  3 17  1  0  0  0  0
  4 18  1  0  0  0  0
  5 19  1  0  0  0  0
  8 20  1  0  0  0  0
  8 21  1  0  0  0  0
  8 22  1  0  0  0  0
  9 23  1  0  0  0  0
  9 24  1  0  0  0  0
 10 25  1  0  0  0  0
 10 26  1  0  0  0  0
 11 27  1  0  0  0  0
 12 28  1  0  0  0  0
M  END
> <Name>
IA_125.cdx

> <SourceTag>
IA_125

> <Gold.Version>
5.2

> <Gold.Id.Protein>
6HGV|6HGV_protein|mol2

> <Gold.Goldscore.Fitness>
52.2176

> <Gold.Goldscore.Internal.Vdw>
-2.9360

> <Gold.Goldscore.Internal.Torsion>
-2.1119

> <Gold.Goldscore.External.Vdw>
34.2487

> <Gold.Goldscore.Internal.HBond>
0.0000

> <Gold.Goldscore.External.HBond>
5.5017

> <Gold.Goldscore.Internal.Correction>
-4.6718

> <Gold.Goldscore.Hbonds>
donor molecule, donor type, donor heavy atom, donor atom, acceptor molecule, acceptor atom, score
      P1  H  1247  3847       L1    13  0.24
      L1  H    11    27       P1   854  0.51
      L1  H    12    28       P1   854  0.33

> <Gold.Goldscore.Internal.Vdw.Weighted>
-2.9360

> <Gold.Goldscore.Internal.Torsion.Weighted>
-2.1119

> <Gold.Goldscore.External.Vdw.Weighted>
47.0920

> <Gold.Goldscore.Internal.HBond.Weighted>
0.0000

> <Gold.Goldscore.External.HBond.Weighted>
5.5017

> <Gold.Goldscore.Internal.Correction.Weighted>
-4.6718

> <Gold.Protein.RotatedTorsions>
[ 3781 1176 1175 1172 ] final   90.66 input   60.00 | X-H torsion
[ 3847 1247 1246 1244 ] final  157.36 input   60.00 | X-H torsion
[ 4507 1931 1930 1928 ] final  144.72 input   60.00 | X-H torsion
[ 3677 1070 1069 1066 ] final -106.85 input   60.00 | X-H torsion
[ 3525  925  924  922 ] final  152.72 input   59.99 | X-H torsion
[ 4531 1957 1955 1953 ] final -147.83 input   60.00 | X-H torsion

> <Gold.Protein.ActiveResidues>
 PHE267  PRO268  MET310  ASP335  TRP336  MET339  TYR343  THR360  PRO361  ILE363 
 PRO371  SER374  ILE375  ASN378  PHE381  TYR383  GLN384  PHE387  LEU408  LEU417 
 MET419  LEU428  TYR466  MET469  ASN472  ASP496  VAL498  LEU499  MET503  HIS524 
 TRP525 

> <Gold.Protein.RotatedAtoms>
   -2.0680  -30.2734  -29.8099 H   0  0  0  0  0  0  0  0  0  0  0  0  # atno 3525 bound_to 925 
  -11.6372  -23.7033  -31.4360 H   0  0  0  0  0  0  0  0  0  0  0  0  # atno 3677 bound_to 1070
  -10.2422  -37.3167  -32.4638 H   0  0  0  0  0  0  0  0  0  0  0  0  # atno 3781 bound_to 1176
  -14.4361  -27.7265  -37.9342 H   0  0  0  0  0  0  0  0  0  0  0  0  # atno 3847 bound_to 1247
  -12.5583  -23.7947  -39.7151 H   0  0  0  0  0  0  0  0  0  0  0  0  # atno 4507 bound_to 1931
   -1.2743  -33.2967  -37.0037 H   0  0  0  0  0  0  0  0  0  0  0  0  # atno 4531 bound_to 1957
  -10.6022  -36.9735  -34.0132 LP  0  0  0  0  0  0  0  0  0  0  0  0  # atno 5205 bound_to 1176
   -9.2648  -36.3398  -33.3230 LP  0  0  0  0  0  0  0  0  0  0  0  0  # atno 5206 bound_to 1176
  -15.1708  -28.9614  -37.1706 LP  0  0  0  0  0  0  0  0  0  0  0  0  # atno 5215 bound_to 1247
  -15.9629  -27.5518  -37.3990 LP  0  0  0  0  0  0  0  0  0  0  0  0  # atno 5216 bound_to 1247
  -12.9886  -25.1129  -38.8634 LP  0  0  0  0  0  0  0  0  0  0  0  0  # atno 5217 bound_to 1931
  -13.6514  -24.8321  -40.3292 LP  0  0  0  0  0  0  0  0  0  0  0  0  # atno 5218 bound_to 1931
  -11.4103  -22.2564  -30.7265 LP  0  0  0  0  0  0  0  0  0  0  0  0  # atno 5224 bound_to 1070
  -12.8088  -23.0689  -30.5017 LP  0  0  0  0  0  0  0  0  0  0  0  0  # atno 5225 bound_to 1070

$$$$
IA_76.cdx|SeH_inactivess_minimized|sdf|153|dock1
  -GOLD-   4172122 93D 1   1.00000     0.00000

 24 23  0  0  0  0  0  0  0  0  1 V2000
  -16.7833  -25.4259  -35.3263 C   0  0  0  0  0  0  0  0  0  0  0  0
  -16.9449  -25.1426  -36.6237 C   0  0  0  0  0  0  0  0  0  0  0  0
  -13.5467  -25.8396  -36.9456 C   0  0  0  0  0  0  0  0  0  0  0  0
  -10.6505  -25.6077  -33.6582 C   0  0  0  0  0  0  0  0  0  0  0  0
  -15.8202  -25.0475  -37.6020 C   0  0  0  0  0  0  0  0  0  0  0  0
  -10.2315  -25.5984  -35.1215 C   0  0  0  0  0  0  0  0  0  0  0  0
  -11.2648  -26.2477  -36.0343 C   0  0  0  0  0  0  0  0  0  0  0  0
  -14.5808  -24.9101  -36.8726 N   0  0  0  0  0  0  0  0  0  0  0  0
  -12.4717  -25.4625  -36.1447 N   0  0  0  0  0  0  0  0  0  0  0  0
  -13.5766  -26.8620  -37.6292 O   0  0  0  0  0  0  0  0  0  0  0  0
  -17.6420  -25.4872  -34.6669 H   0  0  0  0  0  0  0  0  0  0  0  0
  -15.8008  -25.5996  -34.9012 H   0  0  0  0  0  0  0  0  0  0  0  0
  -17.9527  -24.9834  -36.9992 H   0  0  0  0  0  0  0  0  0  0  0  0
   -9.8940  -25.1260  -33.0307 H   0  0  0  0  0  0  0  0  0  0  0  0
  -11.5915  -25.0625  -33.5326 H   0  0  0  0  0  0  0  0  0  0  0  0
  -10.8028  -26.6280  -33.2932 H   0  0  0  0  0  0  0  0  0  0  0  0
  -15.9559  -24.1673  -38.2379 H   0  0  0  0  0  0  0  0  0  0  0  0
  -15.7536  -25.9293  -38.2471 H   0  0  0  0  0  0  0  0  0  0  0  0
   -9.2836  -26.1407  -35.2178 H   0  0  0  0  0  0  0  0  0  0  0  0
  -10.0473  -24.5646  -35.4369 H   0  0  0  0  0  0  0  0  0  0  0  0
  -10.8581  -26.3530  -37.0450 H   0  0  0  0  0  0  0  0  0  0  0  0
  -11.5440  -27.2428  -35.6740 H   0  0  0  0  0  0  0  0  0  0  0  0
  -14.4578  -24.0964  -36.2780 H   0  0  0  0  0  0  0  0  0  0  0  0
  -12.5171  -24.5768  -35.6506 H   0  0  0  0  0  0  0  0  0  0  0  0
  1  2  2  0  0  0  0
  2  5  1  0  0  0  0
  3  8  1  0  0  0  0
  3  9  1  0  0  0  0
  3 10  2  0  0  0  0
  4  6  1  0  0  0  0
  5  8  1  0  0  0  0
  6  7  1  0  0  0  0
  7  9  1  0  0  0  0
  1 11  1  0  0  0  0
  1 12  1  0  0  0  0
  2 13  1  0  0  0  0
  4 14  1  0  0  0  0
  4 15  1  0  0  0  0
  4 16  1  0  0  0  0
  5 17  1  0  0  0  0
  5 18  1  0  0  0  0
  6 19  1  0  0  0  0
  6 20  1  0  0  0  0
  7 21  1  0  0  0  0
  7 22  1  0  0  0  0
  8 23  1  0  0  0  0
  9 24  1  0  0  0  0
M  END
> <Name>
IA_76.cdx

> <SourceTag>
IA_76

> <Gold.Version>
5.2

> <Gold.Id.Protein>
6HGV|6HGV_protein|mol2

> <Gold.Goldscore.Fitness>
43.1571

> <Gold.Goldscore.Internal.Vdw>
-2.1904

> <Gold.Goldscore.Internal.Torsion>
-1.5721

> <Gold.Goldscore.External.Vdw>
27.6897

> <Gold.Goldscore.Internal.HBond>
0.0000

> <Gold.Goldscore.External.HBond>
6.6634

> <Gold.Goldscore.Internal.Correction>
-2.1828

> <Gold.Goldscore.Hbonds>
donor molecule, donor type, donor heavy atom, donor atom, acceptor molecule, acceptor atom, score
      L1  H     8    23       P1   853  1.00
      L1  H     9    24       P1   853  0.11

> <Gold.Goldscore.Internal.Vdw.Weighted>
-2.1904

> <Gold.Goldscore.Internal.Torsion.Weighted>
-1.5721

> <Gold.Goldscore.External.Vdw.Weighted>
38.0734

> <Gold.Goldscore.Internal.HBond.Weighted>
0.0000

> <Gold.Goldscore.External.HBond.Weighted>
6.6634

> <Gold.Goldscore.Internal.Correction.Weighted>
-2.1828

> <Gold.Protein.RotatedTorsions>
[ 3781 1176 1175 1172 ] final   89.02 input   60.00 | X-H torsion
[ 3847 1247 1246 1244 ] final  -36.82 input   60.00 | X-H torsion
[ 4507 1931 1930 1928 ] final   87.03 input   60.00 | X-H torsion
[ 3677 1070 1069 1066 ] final -105.37 input   60.00 | X-H torsion
[ 3525  925  924  922 ] final  141.86 input   59.99 | X-H torsion
[ 4531 1957 1955 1953 ] final  157.33 input   60.00 | X-H torsion

> <Gold.Protein.ActiveResidues>
 PHE267  PRO268  MET310  ASP335  TRP336  MET339  TYR343  THR360  PRO361  ILE363 
 PRO371  SER374  ILE375  ASN378  PHE381  TYR383  GLN384  PHE387  LEU408  LEU417 
 MET419  LEU428  TYR466  MET469  ASN472  ASP496  VAL498  LEU499  MET503  HIS524 
 TRP525 

> <Gold.Protein.RotatedAtoms>
   -2.0551  -30.2629  -29.9864 H   0  0  0  0  0  0  0  0  0  0  0  0  # atno 3525 bound_to 925 
  -11.6579  -23.7150  -31.4325 H   0  0  0  0  0  0  0  0  0  0  0  0  # atno 3677 bound_to 1070
  -10.2641  -37.3269  -32.4754 H   0  0  0  0  0  0  0  0  0  0  0  0  # atno 3781 bound_to 1176
  -16.0296  -28.2240  -37.1184 H   0  0  0  0  0  0  0  0  0  0  0  0  # atno 3847 bound_to 1247
  -12.4724  -24.2957  -38.9685 H   0  0  0  0  0  0  0  0  0  0  0  0  # atno 4507 bound_to 1931
   -1.7933  -33.9799  -36.9168 H   0  0  0  0  0  0  0  0  0  0  0  0  # atno 4531 bound_to 1957
  -10.5858  -36.9573  -34.0272 LP  0  0  0  0  0  0  0  0  0  0  0  0  # atno 5205 bound_to 1176
   -9.2592  -36.3457  -33.2973 LP  0  0  0  0  0  0  0  0  0  0  0  0  # atno 5206 bound_to 1176
  -14.9876  -27.2473  -37.8983 LP  0  0  0  0  0  0  0  0  0  0  0  0  # atno 5215 bound_to 1247
  -14.5413  -28.7649  -37.4929 LP  0  0  0  0  0  0  0  0  0  0  0  0  # atno 5216 bound_to 1247
  -13.5586  -25.3732  -39.5227 LP  0  0  0  0  0  0  0  0  0  0  0  0  # atno 5217 bound_to 1931
  -13.1679  -24.0672  -40.4218 LP  0  0  0  0  0  0  0  0  0  0  0  0  # atno 5218 bound_to 1931
  -11.3931  -22.2661  -30.7405 LP  0  0  0  0  0  0  0  0  0  0  0  0  # atno 5224 bound_to 1070
  -12.8052  -23.0474  -30.4912 LP  0  0  0  0  0  0  0  0  0  0  0  0  # atno 5225 bound_to 1070

$$$$
IA_70.cdx|SeH_inactivess_minimized|sdf|148|dock2
  -GOLD-   4172122 63D 1   1.00000     0.00000

 14 13  0  0  0  0  0  0  0  0  1 V2000
  -11.1946  -25.8376  -36.4054 C   0  0  0  0  0  0  0  0  0  0  0  0
  -11.7696  -24.9060  -34.1570 C   0  0  0  0  0  0  0  0  0  0  0  0
   -9.6922  -26.2175  -34.4385 C   0  0  0  0  0  0  0  0  0  0  0  0
  -12.1858  -25.0206  -36.9124 N   0  0  0  0  0  0  0  0  0  0  0  0
  -10.8967  -25.6594  -35.0474 N   0  0  0  0  0  0  0  0  0  0  0  0
  -10.6367  -26.6676  -37.1288 O   0  0  0  0  0  0  0  0  0  0  0  0
  -11.6976  -23.8375  -34.3759 H   0  0  0  0  0  0  0  0  0  0  0  0
  -11.4814  -25.0721  -33.1155 H   0  0  0  0  0  0  0  0  0  0  0  0
  -12.8077  -25.2230  -34.2882 H   0  0  0  0  0  0  0  0  0  0  0  0
   -9.1417  -25.4353  -33.9093 H   0  0  0  0  0  0  0  0  0  0  0  0
   -9.0434  -26.6454  -35.2077 H   0  0  0  0  0  0  0  0  0  0  0  0
   -9.9579  -27.0037  -33.7268 H   0  0  0  0  0  0  0  0  0  0  0  0
  -12.4520  -25.0957  -37.8867 H   0  0  0  0  0  0  0  0  0  0  0  0
  -12.6485  -24.3452  -36.3126 H   0  0  0  0  0  0  0  0  0  0  0  0
  1  4  1  0  0  0  0
  1  5  1  0  0  0  0
  1  6  2  0  0  0  0
  2  5  1  0  0  0  0
  3  5  1  0  0  0  0
  2  7  1  0  0  0  0
  2  8  1  0  0  0  0
  2  9  1  0  0  0  0
  3 10  1  0  0  0  0
  3 11  1  0  0  0  0
  3 12  1  0  0  0  0
  4 13  1  0  0  0  0
  4 14  1  0  0  0  0
M  END
> <Name>
IA_70.cdx

> <SourceTag>
IA_70

> <Gold.Version>
5.2

> <Gold.Id.Protein>
6HGV|6HGV_protein|mol2

> <Gold.Goldscore.Fitness>
31.4561

> <Gold.Goldscore.Internal.Vdw>
-4.3445

> <Gold.Goldscore.Internal.Torsion>
-2.7762

> <Gold.Goldscore.External.Vdw>
18.4033

> <Gold.Goldscore.Internal.HBond>
0.0000

> <Gold.Goldscore.External.HBond>
6.5563

> <Gold.Goldscore.Internal.Correction>
-6.7159

> <Gold.Goldscore.Hbonds>
donor molecule, donor type, donor heavy atom, donor atom, acceptor molecule, acceptor atom, score
      L1  H     4    13       P1  1931  0.99
      L1  H     4    14       P1   853  0.76

> <Gold.Goldscore.Internal.Vdw.Weighted>
-4.3445

> <Gold.Goldscore.Internal.Torsion.Weighted>
-2.7762

> <Gold.Goldscore.External.Vdw.Weighted>
25.3046

> <Gold.Goldscore.Internal.HBond.Weighted>
0.0000

> <Gold.Goldscore.External.HBond.Weighted>
6.5563

> <Gold.Goldscore.Internal.Correction.Weighted>
-6.7159

> <Gold.Protein.RotatedTorsions>
[ 3781 1176 1175 1172 ] final  176.72 input   60.00 | X-H torsion
[ 3847 1247 1246 1244 ] final  161.56 input   60.00 | X-H torsion
[ 4507 1931 1930 1928 ] final -178.99 input   60.00 | X-H torsion
[ 3677 1070 1069 1066 ] final -157.74 input   60.00 | X-H torsion
[ 3525  925  924  922 ] final  -11.13 input   59.99 | X-H torsion
[ 4531 1957 1955 1953 ] final -170.43 input   60.00 | X-H torsion

> <Gold.Protein.ActiveResidues>
 PHE267  PRO268  MET310  ASP335  TRP336  MET339  TYR343  THR360  PRO361  ILE363 
 PRO371  SER374  ILE375  ASN378  PHE381  TYR383  GLN384  PHE387  LEU408  LEU417 
 MET419  LEU428  TYR466  MET469  ASN472  ASP496  VAL498  LEU499  MET503  HIS524 
 TRP525 

> <Gold.Protein.RotatedAtoms>
   -3.6847  -29.5221  -30.3184 H   0  0  0  0  0  0  0  0  0  0  0  0  # atno 3525 bound_to 925 
  -11.1307  -23.0865  -31.3337 H   0  0  0  0  0  0  0  0  0  0  0  0  # atno 3677 bound_to 1070
   -9.2853  -36.5466  -32.8154 H   0  0  0  0  0  0  0  0  0  0  0  0  # atno 3781 bound_to 1176
  -14.4713  -27.6682  -37.9426 H   0  0  0  0  0  0  0  0  0  0  0  0  # atno 3847 bound_to 1247
  -12.8813  -23.8516  -40.1973 H   0  0  0  0  0  0  0  0  0  0  0  0  # atno 4507 bound_to 1931
   -1.4073  -33.6381  -36.9843 H   0  0  0  0  0  0  0  0  0  0  0  0  # atno 4531 bound_to 1957
  -10.6407  -37.4471  -32.8175 LP  0  0  0  0  0  0  0  0  0  0  0  0  # atno 5205 bound_to 1176
  -10.1900  -36.6418  -34.1647 LP  0  0  0  0  0  0  0  0  0  0  0  0  # atno 5206 bound_to 1176
  -15.1060  -28.9663  -37.1942 LP  0  0  0  0  0  0  0  0  0  0  0  0  # atno 5215 bound_to 1247
  -15.9921  -27.6055  -37.3669 LP  0  0  0  0  0  0  0  0  0  0  0  0  # atno 5216 bound_to 1247
  -12.6294  -24.6523  -38.8032 LP  0  0  0  0  0  0  0  0  0  0  0  0  # atno 5217 bound_to 1931
  -13.6854  -25.2355  -39.9038 LP  0  0  0  0  0  0  0  0  0  0  0  0  # atno 5218 bound_to 1931
  -12.1357  -22.2491  -30.3657 LP  0  0  0  0  0  0  0  0  0  0  0  0  # atno 5224 bound_to 1070
  -12.5934  -23.6974  -30.9655 LP  0  0  0  0  0  0  0  0  0  0  0  0  # atno 5225 bound_to 1070

$$$$
IA_76.cdx|SeH_inactivess_minimized|sdf|153|dock6
  -GOLD-   4172122 93D 1   1.00000     0.00000

 24 23  0  0  0  0  0  0  0  0  1 V2000
  -17.9557  -24.8532  -36.8507 C   0  0  0  0  0  0  0  0  0  0  0  0
  -16.8826  -25.4849  -37.3398 C   0  0  0  0  0  0  0  0  0  0  0  0
  -13.6174  -25.6645  -37.0828 C   0  0  0  0  0  0  0  0  0  0  0  0
  -10.9038  -25.2783  -33.5628 C   0  0  0  0  0  0  0  0  0  0  0  0
  -15.7543  -24.7947  -38.0337 C   0  0  0  0  0  0  0  0  0  0  0  0
  -10.4635  -25.4417  -35.0107 C   0  0  0  0  0  0  0  0  0  0  0  0
  -11.5019  -26.1593  -35.8647 C   0  0  0  0  0  0  0  0  0  0  0  0
  -14.6324  -24.7124  -37.1272 N   0  0  0  0  0  0  0  0  0  0  0  0
  -12.6639  -25.3411  -36.1208 N   0  0  0  0  0  0  0  0  0  0  0  0
  -13.5673  -26.6626  -37.8003 O   0  0  0  0  0  0  0  0  0  0  0  0
  -18.7400  -25.4108  -36.3506 H   0  0  0  0  0  0  0  0  0  0  0  0
  -18.0716  -23.7786  -36.9397 H   0  0  0  0  0  0  0  0  0  0  0  0
  -16.8137  -26.5630  -37.2177 H   0  0  0  0  0  0  0  0  0  0  0  0
  -11.8581  -24.7457  -33.5009 H   0  0  0  0  0  0  0  0  0  0  0  0
  -11.0331  -26.2598  -33.0956 H   0  0  0  0  0  0  0  0  0  0  0  0
  -10.1612  -24.7246  -32.9801 H   0  0  0  0  0  0  0  0  0  0  0  0
  -16.0569  -23.7813  -38.3149 H   0  0  0  0  0  0  0  0  0  0  0  0
  -15.4376  -25.3214  -38.9395 H   0  0  0  0  0  0  0  0  0  0  0  0
   -9.5305  -26.0168  -35.0303 H   0  0  0  0  0  0  0  0  0  0  0  0
  -10.2450  -24.4543  -35.4344 H   0  0  0  0  0  0  0  0  0  0  0  0
  -11.0724  -26.4184  -36.8375 H   0  0  0  0  0  0  0  0  0  0  0  0
  -11.8413  -27.0829  -35.3852 H   0  0  0  0  0  0  0  0  0  0  0  0
  -14.5816  -23.9222  -36.4918 H   0  0  0  0  0  0  0  0  0  0  0  0
  -12.7635  -24.4714  -35.6066 H   0  0  0  0  0  0  0  0  0  0  0  0
  1  2  2  0  0  0  0
  2  5  1  0  0  0  0
  3  8  1  0  0  0  0
  3  9  1  0  0  0  0
  3 10  2  0  0  0  0
  4  6  1  0  0  0  0
  5  8  1  0  0  0  0
  6  7  1  0  0  0  0
  7  9  1  0  0  0  0
  1 11  1  0  0  0  0
  1 12  1  0  0  0  0
  2 13  1  0  0  0  0
  4 14  1  0  0  0  0
  4 15  1  0  0  0  0
  4 16  1  0  0  0  0
  5 17  1  0  0  0  0
  5 18  1  0  0  0  0
  6 19  1  0  0  0  0
  6 20  1  0  0  0  0
  7 21  1  0  0  0  0
  7 22  1  0  0  0  0
  8 23  1  0  0  0  0
  9 24  1  0  0  0  0
M  END
> <Name>
IA_76.cdx

> <SourceTag>
IA_76

> <Gold.Version>
5.2

> <Gold.Id.Protein>
6HGV|6HGV_protein|mol2

> <Gold.Goldscore.Fitness>
41.0242

> <Gold.Goldscore.Internal.Vdw>
-1.6755

> <Gold.Goldscore.Internal.Torsion>
-1.6712

> <Gold.Goldscore.External.Vdw>
26.5385

> <Gold.Goldscore.Internal.HBond>
0.0000

> <Gold.Goldscore.External.HBond>
5.9760

> <Gold.Goldscore.Internal.Correction>
-1.9045

> <Gold.Goldscore.Hbonds>
donor molecule, donor type, donor heavy atom, donor atom, acceptor molecule, acceptor atom, score
      P1  H  1247  3847       L1    10  0.10
      L1  H     8    23       P1   853  0.70
      L1  H     9    24       P1   853  0.26

> <Gold.Goldscore.Internal.Vdw.Weighted>
-1.6755

> <Gold.Goldscore.Internal.Torsion.Weighted>
-1.6712

> <Gold.Goldscore.External.Vdw.Weighted>
36.4904

> <Gold.Goldscore.Internal.HBond.Weighted>
0.0000

> <Gold.Goldscore.External.HBond.Weighted>
5.9760

> <Gold.Goldscore.Internal.Correction.Weighted>
-1.9045

> <Gold.Protein.RotatedTorsions>
[ 3781 1176 1175 1172 ] final  116.03 input   60.00 | X-H torsion
[ 3847 1247 1246 1244 ] final  145.88 input   60.00 | X-H torsion
[ 4507 1931 1930 1928 ] final  101.83 input   60.00 | X-H torsion
[ 3677 1070 1069 1066 ] final  -54.83 input   60.00 | X-H torsion
[ 3525  925  924  922 ] final  -67.37 input   59.99 | X-H torsion
[ 4531 1957 1955 1953 ] final  -78.29 input   60.00 | X-H torsion

> <Gold.Protein.ActiveResidues>
 PHE267  PRO268  MET310  ASP335  TRP336  MET339  TYR343  THR360  PRO361  ILE363 
 PRO371  SER374  ILE375  ASN378  PHE381  TYR383  GLN384  PHE387  LEU408  LEU417 
 MET419  LEU428  TYR466  MET469  ASN472  ASP496  VAL498  LEU499  MET503  HIS524 
 TRP525 

> <Gold.Protein.RotatedAtoms>
   -3.6567  -29.6145  -29.4412 H   0  0  0  0  0  0  0  0  0  0  0  0  # atno 3525 bound_to 925 
  -12.3898  -23.8045  -31.1236 H   0  0  0  0  0  0  0  0  0  0  0  0  # atno 3677 bound_to 1070
   -9.8938  -37.1188  -32.3715 H   0  0  0  0  0  0  0  0  0  0  0  0  # atno 3781 bound_to 1176
  -14.3608  -27.8943  -37.8995 H   0  0  0  0  0  0  0  0  0  0  0  0  # atno 3847 bound_to 1247
  -12.4348  -24.1139  -39.1223 H   0  0  0  0  0  0  0  0  0  0  0  0  # atno 4507 bound_to 1931
   -1.7078  -32.3259  -36.9045 H   0  0  0  0  0  0  0  0  0  0  0  0  # atno 4531 bound_to 1957
  -10.7902  -37.2062  -33.7269 LP  0  0  0  0  0  0  0  0  0  0  0  0  # atno 5205 bound_to 1176
   -9.4277  -36.3064  -33.7022 LP  0  0  0  0  0  0  0  0  0  0  0  0  # atno 5206 bound_to 1176
  -15.3472  -28.9241  -37.1157 LP  0  0  0  0  0  0  0  0  0  0  0  0  # atno 5215 bound_to 1247
  -15.8623  -27.4201  -37.4889 LP  0  0  0  0  0  0  0  0  0  0  0  0  # atno 5216 bound_to 1247
  -13.4394  -25.3800  -39.3113 LP  0  0  0  0  0  0  0  0  0  0  0  0  # atno 5217 bound_to 1931
  -13.3250  -24.2435  -40.4783 LP  0  0  0  0  0  0  0  0  0  0  0  0  # atno 5218 bound_to 1931
  -11.0847  -22.8370  -31.2172 LP  0  0  0  0  0  0  0  0  0  0  0  0  # atno 5224 bound_to 1070
  -12.3764  -22.3864  -30.3255 LP  0  0  0  0  0  0  0  0  0  0  0  0  # atno 5225 bound_to 1070

$$$$
IA_89.cdx|SeH_inactivess_minimized|sdf|167|dock6
  -GOLD-   4172122353D 1   1.00000     0.00000

 53 52  0  0  0  0  0  0  0  0  1 V2000
  -14.8015  -24.4395  -37.8797 C   0  0  0  0  0  0  0  0  0  0  0  0
   -3.6477  -33.0035  -32.9760 C   0  0  0  0  0  0  0  0  0  0  0  0
  -18.1272  -23.4918  -40.6654 C   0  0  0  0  0  0  0  0  0  0  0  0
   -3.6065  -32.7026  -34.4657 C   0  0  0  0  0  0  0  0  0  0  0  0
  -16.7338  -23.1625  -40.1488 C   0  0  0  0  0  0  0  0  0  0  0  0
   -4.1628  -31.3113  -34.7722 C   0  0  0  0  0  0  0  0  0  0  0  0
   -5.6548  -31.2271  -34.4433 C   0  0  0  0  0  0  0  0  0  0  0  0
   -6.3169  -29.9398  -34.9433 C   0  0  0  0  0  0  0  0  0  0  0  0
   -7.8098  -29.8556  -34.6142 C   0  0  0  0  0  0  0  0  0  0  0  0
   -8.4327  -28.5864  -35.2019 C   0  0  0  0  0  0  0  0  0  0  0  0
   -9.9285  -28.4476  -34.9041 C   0  0  0  0  0  0  0  0  0  0  0  0
  -10.5507  -27.1790  -35.4915 C   0  0  0  0  0  0  0  0  0  0  0  0
  -12.0439  -27.0913  -35.1644 C   0  0  0  0  0  0  0  0  0  0  0  0
  -12.6109  -25.7154  -35.5274 C   0  0  0  0  0  0  0  0  0  0  0  0
  -16.6913  -22.9954  -38.6346 C   0  0  0  0  0  0  0  0  0  0  0  0
  -12.7026  -25.4825  -37.0365 C   0  0  0  0  0  0  0  0  0  0  0  0
  -15.3637  -23.1846  -38.0972 N   0  0  0  0  0  0  0  0  0  0  0  0
  -13.5230  -24.3217  -37.3597 N   0  0  0  0  0  0  0  0  0  0  0  0
  -15.3661  -25.5063  -38.1187 O   0  0  0  0  0  0  0  0  0  0  0  0
   -3.1154  -33.9359  -32.7628 H   0  0  0  0  0  0  0  0  0  0  0  0
   -3.1733  -32.2022  -32.4005 H   0  0  0  0  0  0  0  0  0  0  0  0
   -4.6793  -33.1136  -32.6267 H   0  0  0  0  0  0  0  0  0  0  0  0
  -18.4448  -24.4847  -40.3312 H   0  0  0  0  0  0  0  0  0  0  0  0
  -18.8505  -22.7609  -40.2899 H   0  0  0  0  0  0  0  0  0  0  0  0
  -18.1632  -23.4680  -41.7589 H   0  0  0  0  0  0  0  0  0  0  0  0
   -4.1866  -33.4628  -35.0017 H   0  0  0  0  0  0  0  0  0  0  0  0
   -2.5713  -32.7754  -34.8191 H   0  0  0  0  0  0  0  0  0  0  0  0
  -16.3977  -22.2302  -40.6173 H   0  0  0  0  0  0  0  0  0  0  0  0
  -16.0385  -23.9511  -40.4602 H   0  0  0  0  0  0  0  0  0  0  0  0
   -3.9977  -31.0859  -35.8317 H   0  0  0  0  0  0  0  0  0  0  0  0
   -3.6148  -30.5606  -34.1903 H   0  0  0  0  0  0  0  0  0  0  0  0
   -6.1766  -32.0959  -34.8629 H   0  0  0  0  0  0  0  0  0  0  0  0
   -5.7846  -31.2767  -33.3549 H   0  0  0  0  0  0  0  0  0  0  0  0
   -6.1699  -29.8481  -36.0263 H   0  0  0  0  0  0  0  0  0  0  0  0
   -5.8004  -29.0890  -34.4816 H   0  0  0  0  0  0  0  0  0  0  0  0
   -8.3328  -30.7304  -35.0160 H   0  0  0  0  0  0  0  0  0  0  0  0
   -7.9376  -29.8673  -33.5263 H   0  0  0  0  0  0  0  0  0  0  0  0
   -7.9003  -27.7040  -34.8263 H   0  0  0  0  0  0  0  0  0  0  0  0
   -8.3009  -28.5947  -36.2911 H   0  0  0  0  0  0  0  0  0  0  0  0
  -10.0913  -28.4725  -33.8197 H   0  0  0  0  0  0  0  0  0  0  0  0
  -10.4416  -29.3236  -35.3201 H   0  0  0  0  0  0  0  0  0  0  0  0
  -10.4121  -27.1714  -36.5794 H   0  0  0  0  0  0  0  0  0  0  0  0
  -10.0452  -26.2927  -35.0922 H   0  0  0  0  0  0  0  0  0  0  0  0
  -12.5869  -27.8680  -35.7168 H   0  0  0  0  0  0  0  0  0  0  0  0
  -12.1916  -27.2895  -34.0963 H   0  0  0  0  0  0  0  0  0  0  0  0
  -13.6018  -25.5920  -35.0724 H   0  0  0  0  0  0  0  0  0  0  0  0
  -11.9688  -24.9368  -35.0971 H   0  0  0  0  0  0  0  0  0  0  0  0
  -17.0061  -21.9837  -38.3605 H   0  0  0  0  0  0  0  0  0  0  0  0
  -17.3586  -23.7064  -38.1374 H   0  0  0  0  0  0  0  0  0  0  0  0
  -11.6951  -25.3299  -37.4387 H   0  0  0  0  0  0  0  0  0  0  0  0
  -13.1207  -26.3679  -37.5274 H   0  0  0  0  0  0  0  0  0  0  0  0
  -14.8141  -22.3626  -37.8670 H   0  0  0  0  0  0  0  0  0  0  0  0
  -13.1121  -23.4089  -37.2353 H   0  0  0  0  0  0  0  0  0  0  0  0
  1 17  1  0  0  0  0
  1 18  1  0  0  0  0
  1 19  2  0  0  0  0
  2  4  1  0  0  0  0
  3  5  1  0  0  0  0
  4  6  1  0  0  0  0
  5 15  1  0  0  0  0
  6  7  1  0  0  0  0
  7  8  1  0  0  0  0
  8  9  1  0  0  0  0
  9 10  1  0  0  0  0
 10 11  1  0  0  0  0
 11 12  1  0  0  0  0
 12 13  1  0  0  0  0
 13 14  1  0  0  0  0
 14 16  1  0  0  0  0
 15 17  1  0  0  0  0
 16 18  1  0  0  0  0
  2 20  1  0  0  0  0
  2 21  1  0  0  0  0
  2 22  1  0  0  0  0
  3 23  1  0  0  0  0
  3 24  1  0  0  0  0
  3 25  1  0  0  0  0
  4 26  1  0  0  0  0
  4 27  1  0  0  0  0
  5 28  1  0  0  0  0
  5 29  1  0  0  0  0
  6 30  1  0  0  0  0
  6 31  1  0  0  0  0
  7 32  1  0  0  0  0
  7 33  1  0  0  0  0
  8 34  1  0  0  0  0
  8 35  1  0  0  0  0
  9 36  1  0  0  0  0
  9 37  1  0  0  0  0
 10 38  1  0  0  0  0
 10 39  1  0  0  0  0
 11 40  1  0  0  0  0
 11 41  1  0  0  0  0
 12 42  1  0  0  0  0
 12 43  1  0  0  0  0
 13 44  1  0  0  0  0
 13 45  1  0  0  0  0
 14 46  1  0  0  0  0
 14 47  1  0  0  0  0
 15 48  1  0  0  0  0
 15 49  1  0  0  0  0
 16 50  1  0  0  0  0
 16 51  1  0  0  0  0
 17 52  1  0  0  0  0
 18 53  1  0  0  0  0
M  END
> <Name>
IA_89.cdx

> <SourceTag>
IA_89

> <Gold.Version>
5.2

> <Gold.Id.Protein>
6HGV|6HGV_protein|mol2

> <Gold.Goldscore.Fitness>
63.4387

> <Gold.Goldscore.Internal.Vdw>
-6.2254

> <Gold.Goldscore.Internal.Torsion>
-3.5967

> <Gold.Goldscore.External.Vdw>
44.7776

> <Gold.Goldscore.Internal.HBond>
0.0000

> <Gold.Goldscore.External.HBond>
5.2444

> <Gold.Goldscore.Internal.Correction>
-6.4472

> <Gold.Goldscore.Hbonds>
donor molecule, donor type, donor heavy atom, donor atom, acceptor molecule, acceptor atom, score
      P1  H  1247  3847       L1    19  1.00
      L1  H    17    52       P1   854  0.01
      L1  H    18    53       P1   854  0.53

> <Gold.Goldscore.Internal.Vdw.Weighted>
-6.2254

> <Gold.Goldscore.Internal.Torsion.Weighted>
-3.5967

> <Gold.Goldscore.External.Vdw.Weighted>
61.5692

> <Gold.Goldscore.Internal.HBond.Weighted>
0.0000

> <Gold.Goldscore.External.HBond.Weighted>
5.2444

> <Gold.Goldscore.Internal.Correction.Weighted>
-6.4472

> <Gold.Protein.RotatedTorsions>
[ 3781 1176 1175 1172 ] final   90.08 input   60.00 | X-H torsion
[ 3847 1247 1246 1244 ] final -142.43 input   60.00 | X-H torsion
[ 4507 1931 1930 1928 ] final -126.90 input   60.00 | X-H torsion
[ 3677 1070 1069 1066 ] final  -72.21 input   60.00 | X-H torsion
[ 3525  925  924  922 ] final   51.15 input   59.99 | X-H torsion
[ 4531 1957 1955 1953 ] final -104.92 input   60.00 | X-H torsion

> <Gold.Protein.ActiveResidues>
 PHE267  PRO268  MET310  ASP335  TRP336  MET339  TYR343  THR360  PRO361  ILE363 
 PRO371  SER374  ILE375  ASN378  PHE381  TYR383  GLN384  PHE387  LEU408  LEU417 
 MET419  LEU428  TYR466  MET469  ASN472  ASP496  VAL498  LEU499  MET503  HIS524 
 TRP525 

> <Gold.Protein.RotatedAtoms>
   -2.9375  -29.7975  -30.8692 H   0  0  0  0  0  0  0  0  0  0  0  0  # atno 3525 bound_to 925 
  -12.1485  -23.8455  -31.2656 H   0  0  0  0  0  0  0  0  0  0  0  0  # atno 3677 bound_to 1070
  -10.2500  -37.3204  -32.4678 H   0  0  0  0  0  0  0  0  0  0  0  0  # atno 3781 bound_to 1176
  -15.2089  -27.2028  -37.8311 H   0  0  0  0  0  0  0  0  0  0  0  0  # atno 3847 bound_to 1247
  -13.4293  -24.3958  -40.4790 H   0  0  0  0  0  0  0  0  0  0  0  0  # atno 4507 bound_to 1931
   -1.4038  -32.6251  -36.9674 H   0  0  0  0  0  0  0  0  0  0  0  0  # atno 4531 bound_to 1957
  -10.5964  -36.9678  -34.0182 LP  0  0  0  0  0  0  0  0  0  0  0  0  # atno 5205 bound_to 1176
   -9.2628  -36.3418  -33.3139 LP  0  0  0  0  0  0  0  0  0  0  0  0  # atno 5206 bound_to 1176
  -14.4113  -28.6031  -37.6058 LP  0  0  0  0  0  0  0  0  0  0  0  0  # atno 5215 bound_to 1247
  -15.9441  -28.4375  -37.0676 LP  0  0  0  0  0  0  0  0  0  0  0  0  # atno 5216 bound_to 1247
  -12.4314  -23.9902  -39.2593 LP  0  0  0  0  0  0  0  0  0  0  0  0  # atno 5217 bound_to 1931
  -13.3314  -25.3494  -39.1640 LP  0  0  0  0  0  0  0  0  0  0  0  0  # atno 5218 bound_to 1931
  -11.1213  -22.5995  -31.0640 LP  0  0  0  0  0  0  0  0  0  0  0  0  # atno 5224 bound_to 1070
  -12.5829  -22.5826  -30.3358 LP  0  0  0  0  0  0  0  0  0  0  0  0  # atno 5225 bound_to 1070

$$$$
IA_180.cdx|SeH_inactivess_minimized|sdf|81|dock6
  -GOLD-   4172120223D 1   1.00000     0.00000

 15 15  0  0  0  0  0  0  0  0  1 V2000
  -11.6457  -25.4485  -36.3022 C   0  0  0  0  0  0  0  0  0  0  0  0
   -9.7697  -25.8225  -34.1649 C   0  0  0  0  0  0  0  0  0  0  0  0
  -11.1544  -25.2877  -33.8475 C   0  0  0  0  0  0  0  0  0  0  0  0
   -9.9008  -26.8964  -35.2296 C   0  0  0  0  0  0  0  0  0  0  0  0
  -11.8448  -24.8749  -35.0563 N   0  0  0  0  0  0  0  0  0  0  0  0
  -10.6488  -26.4086  -36.3744 N   0  0  0  0  0  0  0  0  0  0  0  0
  -12.3018  -25.1112  -37.2901 O   0  0  0  0  0  0  0  0  0  0  0  0
   -9.1385  -25.0076  -34.5411 H   0  0  0  0  0  0  0  0  0  0  0  0
   -9.2930  -26.2241  -33.2649 H   0  0  0  0  0  0  0  0  0  0  0  0
  -11.7721  -26.0533  -33.3660 H   0  0  0  0  0  0  0  0  0  0  0  0
  -11.0975  -24.4220  -33.1807 H   0  0  0  0  0  0  0  0  0  0  0  0
   -8.9172  -27.2199  -35.5836 H   0  0  0  0  0  0  0  0  0  0  0  0
  -10.4328  -27.7722  -34.8427 H   0  0  0  0  0  0  0  0  0  0  0  0
  -12.5169  -24.1171  -34.9842 H   0  0  0  0  0  0  0  0  0  0  0  0
  -10.4272  -26.7957  -37.2865 H   0  0  0  0  0  0  0  0  0  0  0  0
  1  5  1  0  0  0  0
  1  6  1  0  0  0  0
  1  7  2  0  0  0  0
  2  3  1  0  0  0  0
  2  4  1  0  0  0  0
  3  5  1  0  0  0  0
  4  6  1  0  0  0  0
  2  8  1  0  0  0  0
  2  9  1  0  0  0  0
  3 10  1  0  0  0  0
  3 11  1  0  0  0  0
  4 12  1  0  0  0  0
  4 13  1  0  0  0  0
  5 14  1  0  0  0  0
  6 15  1  0  0  0  0
M  END
> <Name>
IA_180.cdx

> <SourceTag>
IA_180

> <Gold.Version>
5.2

> <Gold.Id.Protein>
6HGV|6HGV_protein|mol2

> <Gold.Goldscore.Fitness>
31.2731

> <Gold.Goldscore.Internal.Vdw>
-0.0000

> <Gold.Goldscore.Internal.Torsion>
-0.0000

> <Gold.Goldscore.External.Vdw>
19.8876

> <Gold.Goldscore.Internal.HBond>
0.0000

> <Gold.Goldscore.External.HBond>
3.9276

> <Gold.Goldscore.Internal.Correction>
0.0000

> <Gold.Goldscore.Hbonds>
donor molecule, donor type, donor heavy atom, donor atom, acceptor molecule, acceptor atom, score
      P1  H  1931  4507       L1     7  0.98
      L1  H     5    14       P1   853  0.33

> <Gold.Goldscore.Internal.Vdw.Weighted>
-0.0000

> <Gold.Goldscore.Internal.Torsion.Weighted>
-0.0000

> <Gold.Goldscore.External.Vdw.Weighted>
27.3455

> <Gold.Goldscore.Internal.HBond.Weighted>
0.0000

> <Gold.Goldscore.External.HBond.Weighted>
3.9276

> <Gold.Goldscore.Internal.Correction.Weighted>
0.0000

> <Gold.Protein.RotatedTorsions>
[ 3781 1176 1175 1172 ] final  173.31 input   60.00 | X-H torsion
[ 3847 1247 1246 1244 ] final  158.46 input   60.00 | X-H torsion
[ 4507 1931 1930 1928 ] final   51.27 input   60.00 | X-H torsion
[ 3677 1070 1069 1066 ] final  -47.39 input   60.00 | X-H torsion
[ 3525  925  924  922 ] final  -61.02 input   59.99 | X-H torsion
[ 4531 1957 1955 1953 ] final  -65.15 input   60.00 | X-H torsion

> <Gold.Protein.ActiveResidues>
 PHE267  PRO268  MET310  ASP335  TRP336  MET339  TYR343  THR360  PRO361  ILE363 
 PRO371  SER374  ILE375  ASN378  PHE381  TYR383  GLN384  PHE387  LEU408  LEU417 
 MET419  LEU428  TYR466  MET469  ASN472  ASP496  VAL498  LEU499  MET503  HIS524 
 TRP525 

> <Gold.Protein.RotatedAtoms>
   -3.6997  -29.5875  -29.5315 H   0  0  0  0  0  0  0  0  0  0  0  0  # atno 3525 bound_to 925 
  -12.4819  -23.7645  -31.0555 H   0  0  0  0  0  0  0  0  0  0  0  0  # atno 3677 bound_to 1070
   -9.3020  -36.5746  -32.7703 H   0  0  0  0  0  0  0  0  0  0  0  0  # atno 3781 bound_to 1176
  -14.4449  -27.7110  -37.9366 H   0  0  0  0  0  0  0  0  0  0  0  0  # atno 3847 bound_to 1247
  -12.7149  -24.7867  -38.7932 H   0  0  0  0  0  0  0  0  0  0  0  0  # atno 4507 bound_to 1931
   -1.8998  -32.2385  -36.8665 H   0  0  0  0  0  0  0  0  0  0  0  0  # atno 4531 bound_to 1957
  -10.6708  -37.4495  -32.8646 LP  0  0  0  0  0  0  0  0  0  0  0  0  # atno 5205 bound_to 1176
  -10.1431  -36.6112  -34.1629 LP  0  0  0  0  0  0  0  0  0  0  0  0  # atno 5206 bound_to 1176
  -15.1538  -28.9632  -37.1766 LP  0  0  0  0  0  0  0  0  0  0  0  0  # atno 5215 bound_to 1247
  -15.9709  -27.5656  -37.3905 LP  0  0  0  0  0  0  0  0  0  0  0  0  # atno 5216 bound_to 1247
  -13.7011  -25.1472  -40.0363 LP  0  0  0  0  0  0  0  0  0  0  0  0  # atno 5217 bound_to 1931
  -12.7813  -23.7988  -40.0847 LP  0  0  0  0  0  0  0  0  0  0  0  0  # atno 5218 bound_to 1931
  -11.0933  -22.9447  -31.2743 LP  0  0  0  0  0  0  0  0  0  0  0  0  # atno 5224 bound_to 1070
  -12.2751  -22.3191  -30.3370 LP  0  0  0  0  0  0  0  0  0  0  0  0  # atno 5225 bound_to 1070

$$$$
IA_211.cdx|SeH_inactivess_minimized|sdf|109|dock1
  -GOLD-   4172120563D 1   1.00000     0.00000

 29 29  0  0  0  0  0  0  0  0  1 V2000
  -14.9288  -25.4127  -36.6413 C   0  0  0  0  0  0  0  0  0  0  0  0
  -17.1307  -23.5469  -39.8648 C   0  0  0  0  0  0  0  0  0  0  0  0
  -18.3016  -24.3476  -39.3015 C   0  0  0  0  0  0  0  0  0  0  0  0
  -16.4811  -22.6207  -38.8387 C   0  0  0  0  0  0  0  0  0  0  0  0
  -17.9313  -25.3487  -38.2107 C   0  0  0  0  0  0  0  0  0  0  0  0
  -15.4163  -23.3085  -37.9852 C   0  0  0  0  0  0  0  0  0  0  0  0
  -17.2639  -24.7138  -36.9948 C   0  0  0  0  0  0  0  0  0  0  0  0
  -10.9465  -26.4496  -36.1742 C   0  0  0  0  0  0  0  0  0  0  0  0
  -12.4599  -26.5255  -36.1056 C   0  0  0  0  0  0  0  0  0  0  0  0
  -15.8316  -24.4897  -37.2119 N   0  0  0  0  0  0  0  0  0  0  0  0
  -15.2727  -26.4001  -35.9949 O   0  0  0  0  0  0  0  0  0  0  0  0
  -13.2036  -25.0732  -36.8793 S   0  0  0  0  0  0  0  0  0  0  0  0
  -16.3860  -24.2191  -40.3073 H   0  0  0  0  0  0  0  0  0  0  0  0
  -17.5187  -22.9287  -40.6842 H   0  0  0  0  0  0  0  0  0  0  0  0
  -19.0612  -23.6563  -38.9152 H   0  0  0  0  0  0  0  0  0  0  0  0
  -18.7768  -24.8952  -40.1247 H   0  0  0  0  0  0  0  0  0  0  0  0
  -15.9864  -21.8036  -39.3794 H   0  0  0  0  0  0  0  0  0  0  0  0
  -17.2427  -22.1464  -38.2092 H   0  0  0  0  0  0  0  0  0  0  0  0
  -18.8575  -25.8365  -37.8826 H   0  0  0  0  0  0  0  0  0  0  0  0
  -17.2922  -26.1349  -38.6304 H   0  0  0  0  0  0  0  0  0  0  0  0
  -14.5904  -23.5987  -38.6439 H   0  0  0  0  0  0  0  0  0  0  0  0
  -15.0171  -22.5843  -37.2650 H   0  0  0  0  0  0  0  0  0  0  0  0
  -17.7399  -23.7730  -36.6986 H   0  0  0  0  0  0  0  0  0  0  0  0
  -17.3908  -25.3945  -36.1451 H   0  0  0  0  0  0  0  0  0  0  0  0
  -10.5882  -26.4957  -37.2083 H   0  0  0  0  0  0  0  0  0  0  0  0
  -10.5684  -25.5298  -35.7152 H   0  0  0  0  0  0  0  0  0  0  0  0
  -10.5061  -27.2942  -35.6339 H   0  0  0  0  0  0  0  0  0  0  0  0
  -12.7900  -26.5778  -35.0635 H   0  0  0  0  0  0  0  0  0  0  0  0
  -12.8181  -27.4216  -36.6211 H   0  0  0  0  0  0  0  0  0  0  0  0
  1 10  1  0  0  0  0
  1 11  2  0  0  0  0
  1 12  1  0  0  0  0
  2  3  1  0  0  0  0
  2  4  1  0  0  0  0
  3  5  1  0  0  0  0
  4  6  1  0  0  0  0
  5  7  1  0  0  0  0
  6 10  1  0  0  0  0
  7 10  1  0  0  0  0
  8  9  1  0  0  0  0
  9 12  1  0  0  0  0
  2 13  1  0  0  0  0
  2 14  1  0  0  0  0
  3 15  1  0  0  0  0
  3 16  1  0  0  0  0
  4 17  1  0  0  0  0
  4 18  1  0  0  0  0
  5 19  1  0  0  0  0
  5 20  1  0  0  0  0
  6 21  1  0  0  0  0
  6 22  1  0  0  0  0
  7 23  1  0  0  0  0
  7 24  1  0  0  0  0
  8 25  1  0  0  0  0
  8 26  1  0  0  0  0
  8 27  1  0  0  0  0
  9 28  1  0  0  0  0
  9 29  1  0  0  0  0
M  END
> <Name>
IA_211.cdx

> <SourceTag>
IA_211

> <Gold.Version>
5.2

> <Gold.Id.Protein>
6HGV|6HGV_protein|mol2

> <Gold.Goldscore.Fitness>
42.0517

> <Gold.Goldscore.Internal.Vdw>
-0.8641

> <Gold.Goldscore.Internal.Torsion>
-0.0642

> <Gold.Goldscore.External.Vdw>
30.6288

> <Gold.Goldscore.Internal.HBond>
0.0000

> <Gold.Goldscore.External.HBond>
0.0000

> <Gold.Goldscore.Internal.Correction>
-0.8654

> <Gold.Goldscore.Internal.Vdw.Weighted>
-0.8641

> <Gold.Goldscore.Internal.Torsion.Weighted>
-0.0642

> <Gold.Goldscore.External.Vdw.Weighted>
42.1146

> <Gold.Goldscore.Internal.HBond.Weighted>
0.0000

> <Gold.Goldscore.External.HBond.Weighted>
0.0000

> <Gold.Goldscore.Internal.Correction.Weighted>
-0.8654

> <Gold.Protein.RotatedTorsions>
[ 3781 1176 1175 1172 ] final  -53.72 input   60.00 | X-H torsion
[ 3847 1247 1246 1244 ] final    8.10 input   60.00 | X-H torsion
[ 4507 1931 1930 1928 ] final  -57.06 input   60.00 | X-H torsion
[ 3677 1070 1069 1066 ] final   -1.50 input   60.00 | X-H torsion
[ 3525  925  924  922 ] final  -37.91 input   59.99 | X-H torsion
[ 4531 1957 1955 1953 ] final    5.39 input   60.00 | X-H torsion

> <Gold.Protein.ActiveResidues>
 PHE267  PRO268  MET310  ASP335  TRP336  MET339  TYR343  THR360  PRO361  ILE363 
 PRO371  SER374  ILE375  ASN378  PHE381  TYR383  GLN384  PHE387  LEU408  LEU417 
 MET419  LEU428  TYR466  MET469  ASN472  ASP496  VAL498  LEU499  MET503  HIS524 
 TRP525 

> <Gold.Protein.RotatedAtoms>
   -3.7724  -29.5227  -29.8937 H   0  0  0  0  0  0  0  0  0  0  0  0  # atno 3525 bound_to 925 
  -12.8070  -23.2781  -30.6187 H   0  0  0  0  0  0  0  0  0  0  0  0  # atno 3677 bound_to 1070
  -10.3151  -36.7348  -34.1472 H   0  0  0  0  0  0  0  0  0  0  0  0  # atno 3781 bound_to 1176
  -15.6034  -28.7962  -37.0668 H   0  0  0  0  0  0  0  0  0  0  0  0  # atno 3847 bound_to 1247
  -13.6741  -25.2473  -39.8758 H   0  0  0  0  0  0  0  0  0  0  0  0  # atno 4507 bound_to 1931
   -2.9123  -32.5685  -36.6797 H   0  0  0  0  0  0  0  0  0  0  0  0  # atno 4531 bound_to 1957
   -9.2486  -36.4697  -32.9471 LP  0  0  0  0  0  0  0  0  0  0  0  0  # atno 5205 bound_to 1176
  -10.5451  -37.4296  -32.6938 LP  0  0  0  0  0  0  0  0  0  0  0  0  # atno 5206 bound_to 1176
  -15.6550  -27.2696  -37.6278 LP  0  0  0  0  0  0  0  0  0  0  0  0  # atno 5215 bound_to 1247
  -14.3031  -28.1662  -37.8154 LP  0  0  0  0  0  0  0  0  0  0  0  0  # atno 5216 bound_to 1247
  -12.9023  -23.8569  -40.2213 LP  0  0  0  0  0  0  0  0  0  0  0  0  # atno 5217 bound_to 1931
  -12.6140  -24.6252  -38.8094 LP  0  0  0  0  0  0  0  0  0  0  0  0  # atno 5218 bound_to 1931
  -11.4419  -23.5657  -31.4566 LP  0  0  0  0  0  0  0  0  0  0  0  0  # atno 5224 bound_to 1070
  -11.5992  -22.1878  -30.5946 LP  0  0  0  0  0  0  0  0  0  0  0  0  # atno 5225 bound_to 1070

$$$$
IA_164.cdx|SeH_inactivess_minimized|sdf|66|dock5
  -GOLD-   4172120 53D 1   1.00000     0.00000

 26 25  0  0  0  0  0  0  0  0  1 V2000
  -14.9724  -25.1009  -37.3584 C   0  0  0  0  0  0  0  0  0  0  0  0
  -16.7102  -24.5902  -40.6140 C   0  0  0  0  0  0  0  0  0  0  0  0
  -17.0802  -23.0184  -38.6805 C   0  0  0  0  0  0  0  0  0  0  0  0
  -11.5521  -25.2469  -35.8761 C   0  0  0  0  0  0  0  0  0  0  0  0
  -13.1018  -27.2312  -35.7966 C   0  0  0  0  0  0  0  0  0  0  0  0
  -16.6713  -24.4221  -39.1020 C   0  0  0  0  0  0  0  0  0  0  0  0
  -12.9995  -25.7162  -35.8963 C   0  0  0  0  0  0  0  0  0  0  0  0
  -15.3233  -24.6808  -38.6296 N   0  0  0  0  0  0  0  0  0  0  0  0
  -13.6216  -25.2840  -37.1325 N   0  0  0  0  0  0  0  0  0  0  0  0
  -16.0475  -25.3957  -36.0996 S   0  0  0  0  0  0  0  0  0  0  0  0
  -16.3327  -25.5752  -40.9067 H   0  0  0  0  0  0  0  0  0  0  0  0
  -17.7297  -24.4862  -41.0019 H   0  0  0  0  0  0  0  0  0  0  0  0
  -16.0924  -23.8305  -41.1053 H   0  0  0  0  0  0  0  0  0  0  0  0
  -18.0901  -22.7851  -39.0353 H   0  0  0  0  0  0  0  0  0  0  0  0
  -16.3946  -22.2717  -39.0945 H   0  0  0  0  0  0  0  0  0  0  0  0
  -17.0820  -22.9123  -37.5898 H   0  0  0  0  0  0  0  0  0  0  0  0
  -10.9712  -25.7396  -36.6626 H   0  0  0  0  0  0  0  0  0  0  0  0
  -11.4807  -24.1638  -36.0268 H   0  0  0  0  0  0  0  0  0  0  0  0
  -11.0824  -25.4766  -34.9133 H   0  0  0  0  0  0  0  0  0  0  0  0
  -14.1500  -27.5496  -35.7853 H   0  0  0  0  0  0  0  0  0  0  0  0
  -12.6272  -27.5946  -34.8794 H   0  0  0  0  0  0  0  0  0  0  0  0
  -12.6182  -27.7221  -36.6486 H   0  0  0  0  0  0  0  0  0  0  0  0
  -17.3399  -25.1529  -38.6340 H   0  0  0  0  0  0  0  0  0  0  0  0
  -13.5457  -25.2582  -35.0645 H   0  0  0  0  0  0  0  0  0  0  0  0
  -14.5844  -24.5339  -39.3079 H   0  0  0  0  0  0  0  0  0  0  0  0
  -13.0007  -25.0964  -37.9139 H   0  0  0  0  0  0  0  0  0  0  0  0
  1  8  1  0  0  0  0
  1  9  1  0  0  0  0
  1 10  2  0  0  0  0
  2  6  1  0  0  0  0
  3  6  1  0  0  0  0
  4  7  1  0  0  0  0
  5  7  1  0  0  0  0
  6  8  1  0  0  0  0
  7  9  1  0  0  0  0
  2 11  1  0  0  0  0
  2 12  1  0  0  0  0
  2 13  1  0  0  0  0
  3 14  1  0  0  0  0
  3 15  1  0  0  0  0
  3 16  1  0  0  0  0
  4 17  1  0  0  0  0
  4 18  1  0  0  0  0
  4 19  1  0  0  0  0
  5 20  1  0  0  0  0
  5 21  1  0  0  0  0
  5 22  1  0  0  0  0
  6 23  1  0  0  0  0
  7 24  1  0  0  0  0
  8 25  1  0  0  0  0
  9 26  1  0  0  0  0
M  END
> <Name>
IA_164.cdx

> <SourceTag>
IA_164

> <Gold.Version>
5.2

> <Gold.Id.Protein>
6HGV|6HGV_protein|mol2

> <Gold.Goldscore.Fitness>
42.4353

> <Gold.Goldscore.Internal.Vdw>
-1.3257

> <Gold.Goldscore.Internal.Torsion>
-1.2946

> <Gold.Goldscore.External.Vdw>
29.6787

> <Gold.Goldscore.Internal.HBond>
0.0000

> <Gold.Goldscore.External.HBond>
1.6661

> <Gold.Goldscore.Internal.Correction>
-2.5814

> <Gold.Goldscore.Hbonds>
donor molecule, donor type, donor heavy atom, donor atom, acceptor molecule, acceptor atom, score
      L1  H     8    25       P1  1931  0.44
      L1  H     9    26       P1  1931  0.40

> <Gold.Goldscore.Internal.Vdw.Weighted>
-1.3257

> <Gold.Goldscore.Internal.Torsion.Weighted>
-1.2946

> <Gold.Goldscore.External.Vdw.Weighted>
40.8082

> <Gold.Goldscore.Internal.HBond.Weighted>
0.0000

> <Gold.Goldscore.External.HBond.Weighted>
1.6661

> <Gold.Goldscore.Internal.Correction.Weighted>
-2.5814

> <Gold.Protein.RotatedTorsions>
[ 3781 1176 1175 1172 ] final -129.68 input   60.00 | X-H torsion
[ 3847 1247 1246 1244 ] final  -33.33 input   60.00 | X-H torsion
[ 4507 1931 1930 1928 ] final  154.60 input   60.00 | X-H torsion
[ 3677 1070 1069 1066 ] final -109.24 input   60.00 | X-H torsion
[ 3525  925  924  922 ] final -157.05 input   59.99 | X-H torsion
[ 4531 1957 1955 1953 ] final  117.27 input   60.00 | X-H torsion

> <Gold.Protein.ActiveResidues>
 PHE267  PRO268  MET310  ASP335  TRP336  MET339  TYR343  THR360  PRO361  ILE363 
 PRO371  SER374  ILE375  ASN378  PHE381  TYR383  GLN384  PHE387  LEU408  LEU417 
 MET419  LEU428  TYR466  MET469  ASN472  ASP496  VAL498  LEU499  MET503  HIS524 
 TRP525 

> <Gold.Protein.RotatedAtoms>
   -2.4871  -30.1515  -29.1459 H   0  0  0  0  0  0  0  0  0  0  0  0  # atno 3525 bound_to 925 
  -11.6039  -23.6832  -31.4409 H   0  0  0  0  0  0  0  0  0  0  0  0  # atno 3677 bound_to 1070
   -9.3826  -36.3101  -33.6201 H   0  0  0  0  0  0  0  0  0  0  0  0  # atno 3781 bound_to 1176
  -16.0124  -28.2767  -37.1049 H   0  0  0  0  0  0  0  0  0  0  0  0  # atno 3847 bound_to 1247
  -12.6310  -23.7788  -39.8582 H   0  0  0  0  0  0  0  0  0  0  0  0  # atno 4507 bound_to 1931
   -2.4212  -34.0352  -36.7984 H   0  0  0  0  0  0  0  0  0  0  0  0  # atno 4531 bound_to 1957
   -9.9730  -37.1690  -32.3704 LP  0  0  0  0  0  0  0  0  0  0  0  0  # atno 5205 bound_to 1176
  -10.7597  -37.1579  -33.8013 LP  0  0  0  0  0  0  0  0  0  0  0  0  # atno 5206 bound_to 1176
  -15.0405  -27.2298  -37.8842 LP  0  0  0  0  0  0  0  0  0  0  0  0  # atno 5215 bound_to 1247
  -14.5056  -28.7292  -37.5205 LP  0  0  0  0  0  0  0  0  0  0  0  0  # atno 5216 bound_to 1247
  -12.8813  -25.0015  -38.8140 LP  0  0  0  0  0  0  0  0  0  0  0  0  # atno 5217 bound_to 1931
  -13.6855  -24.9596  -40.2345 LP  0  0  0  0  0  0  0  0  0  0  0  0  # atno 5218 bound_to 1931
  -11.4391  -22.2417  -30.7040 LP  0  0  0  0  0  0  0  0  0  0  0  0  # atno 5224 bound_to 1070
  -12.8135  -23.1039  -30.5193 LP  0  0  0  0  0  0  0  0  0  0  0  0  # atno 5225 bound_to 1070

$$$$
IA_37|SeH_inactivess_minimized|sdf|123|dock3
  -GOLD-   4172121253D 1   1.00000     0.00000

 39 40  0  0  0  0  0  0  0  0  1 V2000
  -19.2212  -23.9955  -37.1404 C   0  0  0  0  0  0  0  0  0  0  0  0
  -18.6900  -24.8897  -36.2110 C   0  0  0  0  0  0  0  0  0  0  0  0
  -18.4021  -23.4457  -38.1265 C   0  0  0  0  0  0  0  0  0  0  0  0
  -17.3394  -25.2341  -36.2679 C   0  0  0  0  0  0  0  0  0  0  0  0
  -17.0517  -23.7902  -38.1834 C   0  0  0  0  0  0  0  0  0  0  0  0
  -16.5203  -24.6843  -37.2541 C   0  0  0  0  0  0  0  0  0  0  0  0
  -14.3486  -25.4458  -36.2312 C   0  0  0  0  0  0  0  0  0  0  0  0
   -9.3833  -26.0175  -34.2067 C   0  0  0  0  0  0  0  0  0  0  0  0
   -9.7944  -27.2438  -35.0156 C   0  0  0  0  0  0  0  0  0  0  0  0
  -10.5975  -25.2723  -33.6613 C   0  0  0  0  0  0  0  0  0  0  0  0
  -10.7753  -26.8818  -36.1284 C   0  0  0  0  0  0  0  0  0  0  0  0
  -11.5800  -24.9070  -34.7718 C   0  0  0  0  0  0  0  0  0  0  0  0
  -12.0027  -26.1396  -35.5824 C   0  0  0  0  0  0  0  0  0  0  0  0
  -16.1980  -23.1856  -39.2504 C   0  0  0  0  0  0  0  0  0  0  0  0
  -12.9421  -25.7415  -36.7192 C   0  0  0  0  0  0  0  0  0  0  0  0
  -15.1527  -25.0463  -37.2948 N   0  0  0  0  0  0  0  0  0  0  0  0
  -14.6725  -25.5606  -35.0537 O   0  0  0  0  0  0  0  0  0  0  0  0
  -15.8941  -24.1749  -40.2248 O   0  0  0  0  0  0  0  0  0  0  0  0
  -20.2729  -23.7277  -37.0960 H   0  0  0  0  0  0  0  0  0  0  0  0
  -19.3278  -25.3179  -35.4433 H   0  0  0  0  0  0  0  0  0  0  0  0
  -18.8256  -22.7500  -38.8460 H   0  0  0  0  0  0  0  0  0  0  0  0
  -16.9374  -25.9320  -35.5378 H   0  0  0  0  0  0  0  0  0  0  0  0
   -8.7352  -26.3231  -33.3775 H   0  0  0  0  0  0  0  0  0  0  0  0
   -8.7960  -25.3424  -34.8412 H   0  0  0  0  0  0  0  0  0  0  0  0
   -8.9041  -27.7150  -35.4475 H   0  0  0  0  0  0  0  0  0  0  0  0
  -10.2556  -27.9832  -34.3493 H   0  0  0  0  0  0  0  0  0  0  0  0
  -11.1053  -25.8970  -32.9162 H   0  0  0  0  0  0  0  0  0  0  0  0
  -10.2696  -24.3628  -33.1451 H   0  0  0  0  0  0  0  0  0  0  0  0
  -10.2621  -26.2582  -36.8718 H   0  0  0  0  0  0  0  0  0  0  0  0
  -11.0901  -27.7964  -36.6450 H   0  0  0  0  0  0  0  0  0  0  0  0
  -12.4625  -24.4281  -34.3310 H   0  0  0  0  0  0  0  0  0  0  0  0
  -11.1147  -24.1658  -35.4345 H   0  0  0  0  0  0  0  0  0  0  0  0
  -12.5494  -26.8200  -34.9158 H   0  0  0  0  0  0  0  0  0  0  0  0
  -16.7119  -22.3500  -39.7428 H   0  0  0  0  0  0  0  0  0  0  0  0
  -15.2591  -22.7982  -38.8343 H   0  0  0  0  0  0  0  0  0  0  0  0
  -12.9839  -26.5551  -37.4479 H   0  0  0  0  0  0  0  0  0  0  0  0
  -12.5447  -24.8521  -37.2149 H   0  0  0  0  0  0  0  0  0  0  0  0
  -14.7193  -25.0058  -38.2150 H   0  0  0  0  0  0  0  0  0  0  0  0
  -16.7418  -24.4890  -40.5788 H   0  0  0  0  0  0  0  0  0  0  0  0
  1  2  1  0  0  0  0
  1  3  2  0  0  0  0
  2  4  2  0  0  0  0
  3  5  1  0  0  0  0
  4  6  1  0  0  0  0
  5  6  2  0  0  0  0
  5 14  1  0  0  0  0
  6 16  1  0  0  0  0
  7 15  1  0  0  0  0
  7 16  1  0  0  0  0
  7 17  2  0  0  0  0
  8  9  1  0  0  0  0
  8 10  1  0  0  0  0
  9 11  1  0  0  0  0
 10 12  1  0  0  0  0
 11 13  1  0  0  0  0
 12 13  1  0  0  0  0
 13 15  1  0  0  0  0
 14 18  1  0  0  0  0
  1 19  1  0  0  0  0
  2 20  1  0  0  0  0
  3 21  1  0  0  0  0
  4 22  1  0  0  0  0
  8 23  1  0  0  0  0
  8 24  1  0  0  0  0
  9 25  1  0  0  0  0
  9 26  1  0  0  0  0
 10 27  1  0  0  0  0
 10 28  1  0  0  0  0
 11 29  1  0  0  0  0
 11 30  1  0  0  0  0
 12 31  1  0  0  0  0
 12 32  1  0  0  0  0
 13 33  1  0  0  0  0
 14 34  1  0  0  0  0
 14 35  1  0  0  0  0
 15 36  1  0  0  0  0
 15 37  1  0  0  0  0
 16 38  1  0  0  0  0
 18 39  1  0  0  0  0
M  END
> <Name>
IA_37

> <SourceTag>
IA_37

> <Gold.Version>
5.2

> <Gold.Id.Protein>
6HGV|6HGV_protein|mol2

> <Gold.Goldscore.Fitness>
62.1358

> <Gold.Goldscore.Internal.Vdw>
-4.0874

> <Gold.Goldscore.Internal.Torsion>
-2.8431

> <Gold.Goldscore.External.Vdw>
45.4994

> <Gold.Goldscore.Internal.HBond>
0.0000

> <Gold.Goldscore.External.HBond>
0.6576

> <Gold.Goldscore.Internal.Correction>
-5.8470

> <Gold.Goldscore.Hbonds>
donor molecule, donor type, donor heavy atom, donor atom, acceptor molecule, acceptor atom, score
      L1  H    16    38       P1  1931  0.33

> <Gold.Goldscore.Internal.Vdw.Weighted>
-4.0874

> <Gold.Goldscore.Internal.Torsion.Weighted>
-2.8431

> <Gold.Goldscore.External.Vdw.Weighted>
62.5617

> <Gold.Goldscore.Internal.HBond.Weighted>
0.0000

> <Gold.Goldscore.External.HBond.Weighted>
0.6576

> <Gold.Goldscore.Internal.Correction.Weighted>
-5.8470

> <Gold.Protein.RotatedTorsions>
[ 3781 1176 1175 1172 ] final   28.40 input   60.00 | X-H torsion
[ 3847 1247 1246 1244 ] final  -80.55 input   60.00 | X-H torsion
[ 4507 1931 1930 1928 ] final  144.30 input   60.00 | X-H torsion
[ 3677 1070 1069 1066 ] final  -70.26 input   60.00 | X-H torsion
[ 3525  925  924  922 ] final    9.71 input   59.99 | X-H torsion
[ 4531 1957 1955 1953 ] final   97.15 input   60.00 | X-H torsion

> <Gold.Protein.ActiveResidues>
 PHE267  PRO268  MET310  ASP335  TRP336  MET339  TYR343  THR360  PRO361  ILE363 
 PRO371  SER374  ILE375  ASN378  PHE381  TYR383  GLN384  PHE387  LEU408  LEU417 
 MET419  LEU428  TYR466  MET469  ASN472  ASP496  VAL498  LEU499  MET503  HIS524 
 TRP525 

> <Gold.Protein.RotatedAtoms>
   -3.4996  -29.5773  -30.5966 H   0  0  0  0  0  0  0  0  0  0  0  0  # atno 3525 bound_to 925 
  -12.1769  -23.8447  -31.2512 H   0  0  0  0  0  0  0  0  0  0  0  0  # atno 3677 bound_to 1070
  -10.8106  -37.4043  -33.2423 H   0  0  0  0  0  0  0  0  0  0  0  0  # atno 3781 bound_to 1176
  -15.9732  -27.5825  -37.3859 H   0  0  0  0  0  0  0  0  0  0  0  0  # atno 3847 bound_to 1247
  -12.5556  -23.7959  -39.7090 H   0  0  0  0  0  0  0  0  0  0  0  0  # atno 4507 bound_to 1931
   -2.7117  -33.8963  -36.7408 H   0  0  0  0  0  0  0  0  0  0  0  0  # atno 4531 bound_to 1957
   -9.7995  -36.4222  -34.0554 LP  0  0  0  0  0  0  0  0  0  0  0  0  # atno 5205 bound_to 1176
   -9.4951  -36.8029  -32.4968 LP  0  0  0  0  0  0  0  0  0  0  0  0  # atno 5206 bound_to 1176
  -14.4471  -27.6937  -37.9396 LP  0  0  0  0  0  0  0  0  0  0  0  0  # atno 5215 bound_to 1247
  -15.1385  -28.9644  -37.1822 LP  0  0  0  0  0  0  0  0  0  0  0  0  # atno 5216 bound_to 1247
  -12.9932  -25.1172  -38.8660 LP  0  0  0  0  0  0  0  0  0  0  0  0  # atno 5217 bound_to 1931
  -13.6496  -24.8265  -40.3327 LP  0  0  0  0  0  0  0  0  0  0  0  0  # atno 5218 bound_to 1931
  -11.1133  -22.6247  -31.0823 LP  0  0  0  0  0  0  0  0  0  0  0  0  # atno 5224 bound_to 1070
  -12.5622  -22.5583  -30.3321 LP  0  0  0  0  0  0  0  0  0  0  0  0  # atno 5225 bound_to 1070

$$$$
IA_42|SeH_inactivess_minimized|sdf|128|dock8
  -GOLD-   4172121383D 1   1.00000     0.00000

 69 73  0  0  0  0  0  0  0  0  1 V2000
   -9.3302  -25.2848  -34.1670 C   0  0  0  0  0  0  0  0  0  0  0  0
  -10.5939  -24.7254  -34.3565 C   0  0  0  0  0  0  0  0  0  0  0  0
   -9.1039  -26.6226  -34.4909 C   0  0  0  0  0  0  0  0  0  0  0  0
  -11.6312  -25.5039  -34.8702 C   0  0  0  0  0  0  0  0  0  0  0  0
  -10.1411  -27.4009  -35.0045 C   0  0  0  0  0  0  0  0  0  0  0  0
  -11.4047  -26.8416  -35.1942 C   0  0  0  0  0  0  0  0  0  0  0  0
   -9.1086  -29.6764  -34.6330 C   0  0  0  0  0  0  0  0  0  0  0  0
   -8.2946  -34.9530  -34.1429 C   0  0  0  0  0  0  0  0  0  0  0  0
   -6.8902  -33.4747  -32.6829 C   0  0  0  0  0  0  0  0  0  0  0  0
   -6.1565  -33.9842  -35.0262 C   0  0  0  0  0  0  0  0  0  0  0  0
   -9.0940  -32.6512  -33.5504 C   0  0  0  0  0  0  0  0  0  0  0  0
   -8.3595  -33.1614  -35.8962 C   0  0  0  0  0  0  0  0  0  0  0  0
   -6.9525  -31.6809  -34.4344 C   0  0  0  0  0  0  0  0  0  0  0  0
  -17.8179  -23.0927  -39.4667 C   0  0  0  0  0  0  0  0  0  0  0  0
  -19.4956  -24.1241  -38.0945 C   0  0  0  0  0  0  0  0  0  0  0  0
  -16.8192  -24.1865  -39.0803 C   0  0  0  0  0  0  0  0  0  0  0  0
  -18.5068  -25.2239  -37.6996 C   0  0  0  0  0  0  0  0  0  0  0  0
   -8.3299  -33.8840  -33.0376 C   0  0  0  0  0  0  0  0  0  0  0  0
   -7.5924  -34.3963  -35.3929 C   0  0  0  0  0  0  0  0  0  0  0  0
   -6.1802  -32.9103  -33.9252 C   0  0  0  0  0  0  0  0  0  0  0  0
   -8.4003  -32.0707  -34.8028 C   0  0  0  0  0  0  0  0  0  0  0  0
  -15.4169  -25.3854  -36.1177 C   0  0  0  0  0  0  0  0  0  0  0  0
  -14.6162  -26.5654  -35.5694 C   0  0  0  0  0  0  0  0  0  0  0  0
  -16.1802  -25.7759  -37.3820 C   0  0  0  0  0  0  0  0  0  0  0  0
  -13.4210  -26.8933  -36.4545 C   0  0  0  0  0  0  0  0  0  0  0  0
  -19.1986  -23.5795  -39.4212 N   0  0  0  0  0  0  0  0  0  0  0  0
  -17.1267  -24.7244  -37.7488 N   0  0  0  0  0  0  0  0  0  0  0  0
   -9.8954  -28.7552  -35.3302 N   0  0  0  0  0  0  0  0  0  0  0  0
   -9.1226  -30.9133  -35.2839 N   0  0  0  0  0  0  0  0  0  0  0  0
   -8.4817  -29.4674  -33.5973 O   0  0  0  0  0  0  0  0  0  0  0  0
  -12.4320  -27.5847  -35.6949 O   0  0  0  0  0  0  0  0  0  0  0  0
   -8.5230  -24.6789  -33.7663 H   0  0  0  0  0  0  0  0  0  0  0  0
  -10.7705  -23.6841  -34.1037 H   0  0  0  0  0  0  0  0  0  0  0  0
   -8.1149  -27.0472  -34.3387 H   0  0  0  0  0  0  0  0  0  0  0  0
  -12.6133  -25.0620  -35.0149 H   0  0  0  0  0  0  0  0  0  0  0  0
   -7.7680  -35.8454  -33.7834 H   0  0  0  0  0  0  0  0  0  0  0  0
   -9.3156  -35.2653  -34.3947 H   0  0  0  0  0  0  0  0  0  0  0  0
   -6.9003  -32.7233  -31.8838 H   0  0  0  0  0  0  0  0  0  0  0  0
   -6.3387  -34.3416  -32.2981 H   0  0  0  0  0  0  0  0  0  0  0  0
   -5.5917  -34.8595  -34.6827 H   0  0  0  0  0  0  0  0  0  0  0  0
   -5.6391  -33.5997  -35.9137 H   0  0  0  0  0  0  0  0  0  0  0  0
  -10.1309  -32.9270  -33.7830 H   0  0  0  0  0  0  0  0  0  0  0  0
   -9.1481  -31.8910  -32.7600 H   0  0  0  0  0  0  0  0  0  0  0  0
   -7.8818  -32.7708  -36.8043 H   0  0  0  0  0  0  0  0  0  0  0  0
   -9.3794  -33.4482  -36.1848 H   0  0  0  0  0  0  0  0  0  0  0  0
   -6.9540  -30.8972  -33.6655 H   0  0  0  0  0  0  0  0  0  0  0  0
   -6.4389  -31.2548  -35.3064 H   0  0  0  0  0  0  0  0  0  0  0  0
  -17.7052  -22.2239  -38.8057 H   0  0  0  0  0  0  0  0  0  0  0  0
  -17.5992  -22.7503  -40.4841 H   0  0  0  0  0  0  0  0  0  0  0  0
  -20.5099  -24.5381  -38.1020 H   0  0  0  0  0  0  0  0  0  0  0  0
  -19.4843  -23.3189  -37.3490 H   0  0  0  0  0  0  0  0  0  0  0  0
  -16.8340  -24.9830  -39.8360 H   0  0  0  0  0  0  0  0  0  0  0  0
  -15.8127  -23.7519  -39.0812 H   0  0  0  0  0  0  0  0  0  0  0  0
  -18.7459  -25.5549  -36.6822 H   0  0  0  0  0  0  0  0  0  0  0  0
  -18.6328  -26.0884  -38.3648 H   0  0  0  0  0  0  0  0  0  0  0  0
   -8.8298  -34.2861  -32.1494 H   0  0  0  0  0  0  0  0  0  0  0  0
   -7.5691  -35.1621  -36.1761 H   0  0  0  0  0  0  0  0  0  0  0  0
   -5.1551  -32.6225  -33.6669 H   0  0  0  0  0  0  0  0  0  0  0  0
  -16.1208  -25.0344  -35.3525 H   0  0  0  0  0  0  0  0  0  0  0  0
  -14.7360  -24.5528  -36.3359 H   0  0  0  0  0  0  0  0  0  0  0  0
  -15.2567  -27.4519  -35.4820 H   0  0  0  0  0  0  0  0  0  0  0  0
  -14.2671  -26.3461  -34.5525 H   0  0  0  0  0  0  0  0  0  0  0  0
  -16.7299  -26.7089  -37.2173 H   0  0  0  0  0  0  0  0  0  0  0  0
  -15.4823  -25.9412  -38.2103 H   0  0  0  0  0  0  0  0  0  0  0  0
  -13.7178  -27.5383  -37.2874 H   0  0  0  0  0  0  0  0  0  0  0  0
  -12.9693  -25.9854  -36.8675 H   0  0  0  0  0  0  0  0  0  0  0  0
  -19.8376  -22.8120  -39.6256 H   0  0  0  0  0  0  0  0  0  0  0  0
  -10.3459  -29.1006  -36.1741 H   0  0  0  0  0  0  0  0  0  0  0  0
   -9.6659  -31.0038  -36.1357 H   0  0  0  0  0  0  0  0  0  0  0  0
  1  2  1  0  0  0  0
  1  3  2  0  0  0  0
  2  4  2  0  0  0  0
  3  5  1  0  0  0  0
  4  6  1  0  0  0  0
  5  6  2  0  0  0  0
  5 28  1  0  0  0  0
  6 31  1  0  0  0  0
  7 28  1  0  0  0  0
  7 29  1  0  0  0  0
  7 30  2  0  0  0  0
  8 18  1  0  0  0  0
  8 19  1  0  0  0  0
  9 18  1  0  0  0  0
  9 20  1  0  0  0  0
 10 19  1  0  0  0  0
 10 20  1  0  0  0  0
 11 18  1  0  0  0  0
 11 21  1  0  0  0  0
 12 19  1  0  0  0  0
 12 21  1  0  0  0  0
 13 20  1  0  0  0  0
 13 21  1  0  0  0  0
 14 16  1  0  0  0  0
 14 26  1  0  0  0  0
 15 17  1  0  0  0  0
 15 26  1  0  0  0  0
 16 27  1  0  0  0  0
 17 27  1  0  0  0  0
 21 29  1  0  0  0  0
 22 23  1  0  0  0  0
 22 24  1  0  0  0  0
 23 25  1  0  0  0  0
 24 27  1  0  0  0  0
 25 31  1  0  0  0  0
  1 32  1  0  0  0  0
  2 33  1  0  0  0  0
  3 34  1  0  0  0  0
  4 35  1  0  0  0  0
  8 36  1  0  0  0  0
  8 37  1  0  0  0  0
  9 38  1  0  0  0  0
  9 39  1  0  0  0  0
 10 40  1  0  0  0  0
 10 41  1  0  0  0  0
 11 42  1  0  0  0  0
 11 43  1  0  0  0  0
 12 44  1  0  0  0  0
 12 45  1  0  0  0  0
 13 46  1  0  0  0  0
 13 47  1  0  0  0  0
 14 48  1  0  0  0  0
 14 49  1  0  0  0  0
 15 50  1  0  0  0  0
 15 51  1  0  0  0  0
 16 52  1  0  0  0  0
 16 53  1  0  0  0  0
 17 54  1  0  0  0  0
 17 55  1  0  0  0  0
 18 56  1  0  0  0  0
 19 57  1  0  0  0  0
 20 58  1  0  0  0  0
 22 59  1  0  0  0  0
 22 60  1  0  0  0  0
 23 61  1  0  0  0  0
 23 62  1  0  0  0  0
 24 63  1  0  0  0  0
 24 64  1  0  0  0  0
 25 65  1  0  0  0  0
 25 66  1  0  0  0  0
 26 67  1  0  0  0  0
 28 68  1  0  0  0  0
 29 69  1  0  0  0  0
M  END
> <Name>
IA_42

> <SourceTag>
IA_42

> <Gold.Version>
5.2

> <Gold.Id.Protein>
6HGV|6HGV_protein|mol2

> <Gold.Goldscore.Fitness>
50.3150

> <Gold.Goldscore.Internal.Vdw>
-15.7998

> <Gold.Goldscore.Internal.Torsion>
-8.7473

> <Gold.Goldscore.External.Vdw>
42.6728

> <Gold.Goldscore.Internal.HBond>
0.0000

> <Gold.Goldscore.External.HBond>
1.1069

> <Gold.Goldscore.Internal.Correction>
-15.0801

> <Gold.Goldscore.Hbonds>
donor molecule, donor type, donor heavy atom, donor atom, acceptor molecule, acceptor atom, score
      L1  H    29    69       P1  1255  0.55

> <Gold.Goldscore.Internal.Vdw.Weighted>
-15.7998

> <Gold.Goldscore.Internal.Torsion.Weighted>
-8.7473

> <Gold.Goldscore.External.Vdw.Weighted>
58.6751

> <Gold.Goldscore.Internal.HBond.Weighted>
0.0000

> <Gold.Goldscore.External.HBond.Weighted>
1.1069

> <Gold.Goldscore.Internal.Correction.Weighted>
-15.0801

> <Gold.Protein.RotatedTorsions>
[ 3781 1176 1175 1172 ] final   42.40 input   60.00 | X-H torsion
[ 3847 1247 1246 1244 ] final   10.05 input   60.00 | X-H torsion
[ 4507 1931 1930 1928 ] final  139.71 input   60.00 | X-H torsion
[ 3677 1070 1069 1066 ] final -118.18 input   60.00 | X-H torsion
[ 3525  925  924  922 ] final   56.96 input   59.99 | X-H torsion
[ 4531 1957 1955 1953 ] final  -10.93 input   60.00 | X-H torsion

> <Gold.Protein.ActiveResidues>
 PHE267  PRO268  MET310  ASP335  TRP336  MET339  TYR343  THR360  PRO361  ILE363 
 PRO371  SER374  ILE375  ASN378  PHE381  TYR383  GLN384  PHE387  LEU408  LEU417 
 MET419  LEU428  TYR466  MET469  ASN472  ASP496  VAL498  LEU499  MET503  HIS524 
 TRP525 

> <Gold.Protein.RotatedAtoms>
   -2.8505  -29.8353  -30.8705 H   0  0  0  0  0  0  0  0  0  0  0  0  # atno 3525 bound_to 925 
  -11.4858  -23.5983  -31.4506 H   0  0  0  0  0  0  0  0  0  0  0  0  # atno 3677 bound_to 1070
  -10.7454  -37.4415  -33.0269 H   0  0  0  0  0  0  0  0  0  0  0  0  # atno 3781 bound_to 1176
  -15.5768  -28.8133  -37.0707 H   0  0  0  0  0  0  0  0  0  0  0  0  # atno 3847 bound_to 1247
  -12.5271  -23.8118  -39.6414 H   0  0  0  0  0  0  0  0  0  0  0  0  # atno 4507 bound_to 1931
   -2.7268  -32.3810  -36.7117 H   0  0  0  0  0  0  0  0  0  0  0  0  # atno 4531 bound_to 1957
   -9.9912  -36.5199  -34.1359 LP  0  0  0  0  0  0  0  0  0  0  0  0  # atno 5205 bound_to 1176
   -9.3691  -36.6677  -32.6333 LP  0  0  0  0  0  0  0  0  0  0  0  0  # atno 5206 bound_to 1176
  -15.6802  -27.2825  -37.6129 LP  0  0  0  0  0  0  0  0  0  0  0  0  # atno 5215 bound_to 1247
  -14.3046  -28.1362  -37.8263 LP  0  0  0  0  0  0  0  0  0  0  0  0  # atno 5216 bound_to 1247
  -13.0441  -25.1635  -38.8973 LP  0  0  0  0  0  0  0  0  0  0  0  0  # atno 5217 bound_to 1931
  -13.6274  -24.7643  -40.3695 LP  0  0  0  0  0  0  0  0  0  0  0  0  # atno 5218 bound_to 1931
  -11.5539  -22.1988  -30.6231 LP  0  0  0  0  0  0  0  0  0  0  0  0  # atno 5224 bound_to 1070
  -12.8177  -23.2323  -30.5903 LP  0  0  0  0  0  0  0  0  0  0  0  0  # atno 5225 bound_to 1070

$$$$
IA_181.cdx|SeH_inactivess_minimized|sdf|82|dock7
  -GOLD-   4172120223D 1   1.00000     0.00000

 16 17  0  0  0  0  0  0  0  0  1 V2000
  -21.3288  -23.9514  -37.6679 C   0  0  0  0  0  0  0  0  0  0  0  0
  -20.4166  -23.8947  -38.7447 C   0  0  0  0  0  0  0  0  0  0  0  0
  -20.9110  -24.3232  -36.3863 C   0  0  0  0  0  0  0  0  0  0  0  0
  -19.0658  -24.2085  -38.5642 C   0  0  0  0  0  0  0  0  0  0  0  0
  -19.5774  -24.6273  -36.2332 C   0  0  0  0  0  0  0  0  0  0  0  0
  -18.6785  -24.5714  -37.2942 C   0  0  0  0  0  0  0  0  0  0  0  0
  -17.5172  -25.2236  -35.4318 C   0  0  0  0  0  0  0  0  0  0  0  0
  -18.8845  -25.0239  -35.0893 N   0  0  0  0  0  0  0  0  0  0  0  0
  -17.4166  -24.9323  -36.8217 N   0  0  0  0  0  0  0  0  0  0  0  0
  -16.6143  -25.5732  -34.6851 O   0  0  0  0  0  0  0  0  0  0  0  0
  -22.3724  -23.7013  -37.8416 H   0  0  0  0  0  0  0  0  0  0  0  0
  -20.7728  -23.6020  -39.7291 H   0  0  0  0  0  0  0  0  0  0  0  0
  -21.6093  -24.3674  -35.5591 H   0  0  0  0  0  0  0  0  0  0  0  0
  -18.3661  -24.1649  -39.3902 H   0  0  0  0  0  0  0  0  0  0  0  0
  -19.2871  -25.1488  -34.1686 H   0  0  0  0  0  0  0  0  0  0  0  0
  -16.5700  -24.9794  -37.3752 H   0  0  0  0  0  0  0  0  0  0  0  0
  1  2  2  0  0  0  0
  1  3  1  0  0  0  0
  2  4  1  0  0  0  0
  3  5  2  0  0  0  0
  4  6  2  0  0  0  0
  5  6  1  0  0  0  0
  5  8  1  0  0  0  0
  6  9  1  0  0  0  0
  7  8  1  0  0  0  0
  7  9  1  0  0  0  0
  7 10  2  0  0  0  0
  1 11  1  0  0  0  0
  2 12  1  0  0  0  0
  3 13  1  0  0  0  0
  4 14  1  0  0  0  0
  8 15  1  0  0  0  0
  9 16  1  0  0  0  0
M  END
> <Name>
IA_181.cdx

> <SourceTag>
IA_181

> <Gold.Version>
5.2

> <Gold.Id.Protein>
6HGV|6HGV_protein|mol2

> <Gold.Goldscore.Fitness>
31.9330

> <Gold.Goldscore.Internal.Vdw>
-0.0000

> <Gold.Goldscore.Internal.Torsion>
-0.0000

> <Gold.Goldscore.External.Vdw>
18.9756

> <Gold.Goldscore.Internal.HBond>
0.0000

> <Gold.Goldscore.External.HBond>
5.8415

> <Gold.Goldscore.Internal.Correction>
0.0000

> <Gold.Goldscore.Hbonds>
donor molecule, donor type, donor heavy atom, donor atom, acceptor molecule, acceptor atom, score
      L1  H     8    15       P1  2185  0.97

> <Gold.Goldscore.Internal.Vdw.Weighted>
-0.0000

> <Gold.Goldscore.Internal.Torsion.Weighted>
-0.0000

> <Gold.Goldscore.External.Vdw.Weighted>
26.0915

> <Gold.Goldscore.Internal.HBond.Weighted>
0.0000

> <Gold.Goldscore.External.HBond.Weighted>
5.8415

> <Gold.Goldscore.Internal.Correction.Weighted>
0.0000

> <Gold.Protein.RotatedTorsions>
[ 3781 1176 1175 1172 ] final  -46.89 input   60.00 | X-H torsion
[ 3847 1247 1246 1244 ] final -116.36 input   60.00 | X-H torsion
[ 4507 1931 1930 1928 ] final  -31.88 input   60.00 | X-H torsion
[ 3677 1070 1069 1066 ] final  -71.24 input   60.00 | X-H torsion
[ 3525  925  924  922 ] final -137.36 input   59.99 | X-H torsion
[ 4531 1957 1955 1953 ] final   69.38 input   60.00 | X-H torsion

> <Gold.Protein.ActiveResidues>
 PHE267  PRO268  MET310  ASP335  TRP336  MET339  TYR343  THR360  PRO361  ILE363 
 PRO371  SER374  ILE375  ASN378  PHE381  TYR383  GLN384  PHE387  LEU408  LEU417 
 MET419  LEU428  TYR466  MET469  ASN472  ASP496  VAL498  LEU499  MET503  HIS524 
 TRP525 

> <Gold.Protein.RotatedAtoms>
   -2.7632  -30.0420  -29.0262 H   0  0  0  0  0  0  0  0  0  0  0  0  # atno 3525 bound_to 925 
  -12.1626  -23.8452  -31.2585 H   0  0  0  0  0  0  0  0  0  0  0  0  # atno 3677 bound_to 1070
  -10.4015  -36.8012  -34.1237 H   0  0  0  0  0  0  0  0  0  0  0  0  # atno 3781 bound_to 1176
  -15.5930  -27.2502  -37.6622 H   0  0  0  0  0  0  0  0  0  0  0  0  # atno 3847 bound_to 1247
  -13.5458  -25.3711  -39.5087 H   0  0  0  0  0  0  0  0  0  0  0  0  # atno 4507 bound_to 1931
   -2.9997  -33.5569  -36.6801 H   0  0  0  0  0  0  0  0  0  0  0  0  # atno 4531 bound_to 1957
   -9.2386  -36.4247  -33.0495 LP  0  0  0  0  0  0  0  0  0  0  0  0  # atno 5205 bound_to 1176
  -10.4681  -37.4077  -32.6151 LP  0  0  0  0  0  0  0  0  0  0  0  0  # atno 5206 bound_to 1176
  -14.3036  -28.2347  -37.7890 LP  0  0  0  0  0  0  0  0  0  0  0  0  # atno 5215 bound_to 1247
  -15.6649  -28.7580  -37.0545 LP  0  0  0  0  0  0  0  0  0  0  0  0  # atno 5216 bound_to 1247
  -13.1797  -24.0791  -40.4278 LP  0  0  0  0  0  0  0  0  0  0  0  0  # atno 5217 bound_to 1931
  -12.4658  -24.2783  -38.9727 LP  0  0  0  0  0  0  0  0  0  0  0  0  # atno 5218 bound_to 1931
  -11.1172  -22.6120  -31.0731 LP  0  0  0  0  0  0  0  0  0  0  0  0  # atno 5224 bound_to 1070
  -12.5727  -22.5705  -30.3339 LP  0  0  0  0  0  0  0  0  0  0  0  0  # atno 5225 bound_to 1070

$$$$
IA_92.cdx|SeH_inactivess_minimized|sdf|171|dock10
  -GOLD-   41821 8303D 1   1.00000     0.00000

 49 48  0  0  0  0  0  0  0  0  1 V2000
   -6.2467  -31.4541  -35.4374 C   0  0  0  0  0  0  0  0  0  0  0  0
   -8.1335  -29.8555  -35.6404 C   0  0  0  0  0  0  0  0  0  0  0  0
  -21.2705  -23.7349  -39.5976 C   0  0  0  0  0  0  0  0  0  0  0  0
   -4.7984  -31.4931  -35.0206 C   0  0  0  0  0  0  0  0  0  0  0  0
  -20.4994  -24.0596  -38.3281 C   0  0  0  0  0  0  0  0  0  0  0  0
  -18.9965  -24.1566  -38.5943 C   0  0  0  0  0  0  0  0  0  0  0  0
  -18.2432  -24.6288  -37.3489 C   0  0  0  0  0  0  0  0  0  0  0  0
  -16.7352  -24.7797  -37.5701 C   0  0  0  0  0  0  0  0  0  0  0  0
  -15.9958  -25.3475  -36.3556 C   0  0  0  0  0  0  0  0  0  0  0  0
  -14.5101  -25.5547  -36.6627 C   0  0  0  0  0  0  0  0  0  0  0  0
  -13.6781  -25.9186  -35.4295 C   0  0  0  0  0  0  0  0  0  0  0  0
  -12.1934  -26.1256  -35.7367 C   0  0  0  0  0  0  0  0  0  0  0  0
  -11.4107  -26.4866  -34.4712 C   0  0  0  0  0  0  0  0  0  0  0  0
   -9.9244  -26.6936  -34.7791 C   0  0  0  0  0  0  0  0  0  0  0  0
   -9.6614  -27.8935  -35.6907 C   0  0  0  0  0  0  0  0  0  0  0  0
   -6.8122  -30.1871  -35.3073 N   0  0  0  0  0  0  0  0  0  0  0  0
   -8.3655  -28.5060  -35.4249 N   0  0  0  0  0  0  0  0  0  0  0  0
   -6.8254  -32.4529  -35.8606 O   0  0  0  0  0  0  0  0  0  0  0  0
   -8.9691  -30.6519  -36.0656 O   0  0  0  0  0  0  0  0  0  0  0  0
   -4.1857  -33.1237  -35.3370 Cl  0  0  0  0  0  0  0  0  0  0  0  0
  -22.3407  -23.6570  -39.3816 H   0  0  0  0  0  0  0  0  0  0  0  0
  -20.9400  -22.7827  -40.0247 H   0  0  0  0  0  0  0  0  0  0  0  0
  -21.1319  -24.5166  -40.3512 H   0  0  0  0  0  0  0  0  0  0  0  0
   -4.1835  -30.7742  -35.5677 H   0  0  0  0  0  0  0  0  0  0  0  0
   -4.7229  -31.2835  -33.9501 H   0  0  0  0  0  0  0  0  0  0  0  0
  -20.8675  -25.0067  -37.9169 H   0  0  0  0  0  0  0  0  0  0  0  0
  -20.6951  -23.2828  -37.5796 H   0  0  0  0  0  0  0  0  0  0  0  0
  -18.6251  -23.1749  -38.9090 H   0  0  0  0  0  0  0  0  0  0  0  0
  -18.8145  -24.8538  -39.4209 H   0  0  0  0  0  0  0  0  0  0  0  0
  -18.4256  -23.9343  -36.5197 H   0  0  0  0  0  0  0  0  0  0  0  0
  -18.6413  -25.6027  -37.0378 H   0  0  0  0  0  0  0  0  0  0  0  0
  -16.3056  -23.8089  -37.8456 H   0  0  0  0  0  0  0  0  0  0  0  0
  -16.5813  -25.4476  -38.4269 H   0  0  0  0  0  0  0  0  0  0  0  0
  -16.0938  -24.6658  -35.5038 H   0  0  0  0  0  0  0  0  0  0  0  0
  -16.4561  -26.2996  -36.0694 H   0  0  0  0  0  0  0  0  0  0  0  0
  -14.3944  -26.3334  -37.4263 H   0  0  0  0  0  0  0  0  0  0  0  0
  -14.1010  -24.6305  -37.0897 H   0  0  0  0  0  0  0  0  0  0  0  0
  -14.0894  -26.8216  -34.9621 H   0  0  0  0  0  0  0  0  0  0  0  0
  -13.7824  -25.1088  -34.6967 H   0  0  0  0  0  0  0  0  0  0  0  0
  -11.7782  -25.2110  -36.1769 H   0  0  0  0  0  0  0  0  0  0  0  0
  -12.0701  -26.9271  -36.4735 H   0  0  0  0  0  0  0  0  0  0  0  0
  -11.5225  -25.6861  -33.7298 H   0  0  0  0  0  0  0  0  0  0  0  0
  -11.8346  -27.3972  -34.0321 H   0  0  0  0  0  0  0  0  0  0  0  0
   -9.5107  -25.7848  -35.2339 H   0  0  0  0  0  0  0  0  0  0  0  0
   -9.3807  -26.8495  -33.8389 H   0  0  0  0  0  0  0  0  0  0  0  0
  -10.4471  -28.6413  -35.5367 H   0  0  0  0  0  0  0  0  0  0  0  0
   -9.7055  -27.5834  -36.7402 H   0  0  0  0  0  0  0  0  0  0  0  0
   -6.2208  -29.4456  -34.9424 H   0  0  0  0  0  0  0  0  0  0  0  0
   -7.6403  -27.9226  -35.0367 H   0  0  0  0  0  0  0  0  0  0  0  0
  1  4  1  0  0  0  0
  1 16  1  0  0  0  0
  1 18  2  0  0  0  0
  2 16  1  0  0  0  0
  2 17  1  0  0  0  0
  2 19  2  0  0  0  0
  3  5  1  0  0  0  0
  4 20  1  0  0  0  0
  5  6  1  0  0  0  0
  6  7  1  0  0  0  0
  7  8  1  0  0  0  0
  8  9  1  0  0  0  0
  9 10  1  0  0  0  0
 10 11  1  0  0  0  0
 11 12  1  0  0  0  0
 12 13  1  0  0  0  0
 13 14  1  0  0  0  0
 14 15  1  0  0  0  0
 15 17  1  0  0  0  0
  3 21  1  0  0  0  0
  3 22  1  0  0  0  0
  3 23  1  0  0  0  0
  4 24  1  0  0  0  0
  4 25  1  0  0  0  0
  5 26  1  0  0  0  0
  5 27  1  0  0  0  0
  6 28  1  0  0  0  0
  6 29  1  0  0  0  0
  7 30  1  0  0  0  0
  7 31  1  0  0  0  0
  8 32  1  0  0  0  0
  8 33  1  0  0  0  0
  9 34  1  0  0  0  0
  9 35  1  0  0  0  0
 10 36  1  0  0  0  0
 10 37  1  0  0  0  0
 11 38  1  0  0  0  0
 11 39  1  0  0  0  0
 12 40  1  0  0  0  0
 12 41  1  0  0  0  0
 13 42  1  0  0  0  0
 13 43  1  0  0  0  0
 14 44  1  0  0  0  0
 14 45  1  0  0  0  0
 15 46  1  0  0  0  0
 15 47  1  0  0  0  0
 16 48  1  0  0  0  0
 17 49  1  0  0  0  0
M  END
> <Name>
IA_92.cdx

> <SourceTag>
IA_92

> <Gold.Version>
5.2

> <Gold.Id.Protein>
6HGV|6HGV_protein|mol2

> <Gold.Goldscore.Fitness>
63.4979

> <Gold.Goldscore.Internal.Vdw>
-8.6244

> <Gold.Goldscore.Internal.Torsion>
-3.0622

> <Gold.Goldscore.External.Vdw>
48.1333

> <Gold.Goldscore.Internal.HBond>
0.0000

> <Gold.Goldscore.External.HBond>
0.0000

> <Gold.Goldscore.Internal.Correction>
-9.0013

> <Gold.Goldscore.Internal.Vdw.Weighted>
-8.6244

> <Gold.Goldscore.Internal.Torsion.Weighted>
-3.0622

> <Gold.Goldscore.External.Vdw.Weighted>
66.1833

> <Gold.Goldscore.Internal.HBond.Weighted>
0.0000

> <Gold.Goldscore.External.HBond.Weighted>
0.0000

> <Gold.Goldscore.Internal.Correction.Weighted>
-9.0013

> <Gold.Protein.RotatedTorsions>
[ 3781 1176 1175 1172 ] final -174.30 input   60.00 | X-H torsion
[ 3847 1247 1246 1244 ] final   82.12 input   60.00 | X-H torsion
[ 4507 1931 1930 1928 ] final   77.89 input   60.00 | X-H torsion
[ 3677 1070 1069 1066 ] final -110.49 input   60.00 | X-H torsion
[ 3525  925  924  922 ] final   52.41 input   59.99 | X-H torsion
[ 4531 1957 1955 1953 ] final  -68.82 input   60.00 | X-H torsion

> <Gold.Protein.ActiveResidues>
 PHE267  PRO268  MET310  ASP335  TRP336  MET339  TYR343  THR360  PRO361  ILE363 
 PRO371  SER374  ILE375  ASN378  PHE381  TYR383  GLN384  PHE387  LEU408  LEU417 
 MET419  LEU428  TYR466  MET469  ASN472  ASP496  VAL498  LEU499  MET503  HIS524 
 TRP525 

> <Gold.Protein.RotatedAtoms>
   -2.9186  -29.8056  -30.8703 H   0  0  0  0  0  0  0  0  0  0  0  0  # atno 3525 bound_to 925 
  -11.5868  -23.6723  -31.4431 H   0  0  0  0  0  0  0  0  0  0  0  0  # atno 3677 bound_to 1070
   -9.2542  -36.4785  -32.9416 H   0  0  0  0  0  0  0  0  0  0  0  0  # atno 3781 bound_to 1176
  -14.5578  -28.7711  -37.4868 H   0  0  0  0  0  0  0  0  0  0  0  0  # atno 3847 bound_to 1247
  -12.5156  -24.4183  -38.8951 H   0  0  0  0  0  0  0  0  0  0  0  0  # atno 4507 bound_to 1931
   -1.8442  -32.2583  -36.8774 H   0  0  0  0  0  0  0  0  0  0  0  0  # atno 4531 bound_to 1957
  -10.5514  -37.4311  -32.7009 LP  0  0  0  0  0  0  0  0  0  0  0  0  # atno 5205 bound_to 1176
  -10.3107  -36.7262  -34.1541 LP  0  0  0  0  0  0  0  0  0  0  0  0  # atno 5206 bound_to 1176
  -16.0393  -28.2080  -37.1179 LP  0  0  0  0  0  0  0  0  0  0  0  0  # atno 5215 bound_to 1247
  -14.9718  -27.2532  -37.9022 LP  0  0  0  0  0  0  0  0  0  0  0  0  # atno 5216 bound_to 1247
  -13.6164  -25.3424  -39.6580 LP  0  0  0  0  0  0  0  0  0  0  0  0  # atno 5217 bound_to 1931
  -13.0667  -23.9746  -40.3604 LP  0  0  0  0  0  0  0  0  0  0  0  0  # atno 5218 bound_to 1931
  -11.4544  -22.2345  -30.6924 LP  0  0  0  0  0  0  0  0  0  0  0  0  # atno 5224 bound_to 1070
  -12.8154  -23.1220  -30.5287 LP  0  0  0  0  0  0  0  0  0  0  0  0  # atno 5225 bound_to 1070

$$$$
IA_180.cdx|SeH_inactivess_minimized|sdf|81|dock7
  -GOLD-   4172120223D 1   1.00000     0.00000

 15 15  0  0  0  0  0  0  0  0  1 V2000
  -11.7912  -25.6764  -36.3941 C   0  0  0  0  0  0  0  0  0  0  0  0
   -9.7393  -25.9711  -34.4116 C   0  0  0  0  0  0  0  0  0  0  0  0
  -11.0965  -25.4331  -33.9960 C   0  0  0  0  0  0  0  0  0  0  0  0
   -9.9512  -27.0800  -35.4265 C   0  0  0  0  0  0  0  0  0  0  0  0
  -11.8892  -25.0634  -35.1550 N   0  0  0  0  0  0  0  0  0  0  0  0
  -10.7966  -26.6335  -36.5191 N   0  0  0  0  0  0  0  0  0  0  0  0
  -12.5306  -25.3748  -37.3335 O   0  0  0  0  0  0  0  0  0  0  0  0
   -9.1482  -25.1660  -34.8658 H   0  0  0  0  0  0  0  0  0  0  0  0
   -9.1855  -26.3408  -33.5426 H   0  0  0  0  0  0  0  0  0  0  0  0
  -11.6656  -26.1855  -33.4397 H   0  0  0  0  0  0  0  0  0  0  0  0
  -10.9902  -24.5458  -33.3646 H   0  0  0  0  0  0  0  0  0  0  0  0
   -8.9985  -27.4100  -35.8514 H   0  0  0  0  0  0  0  0  0  0  0  0
  -10.4421  -27.9452  -34.9681 H   0  0  0  0  0  0  0  0  0  0  0  0
  -12.5586  -24.3070  -35.0509 H   0  0  0  0  0  0  0  0  0  0  0  0
  -10.6496  -27.0491  -37.4338 H   0  0  0  0  0  0  0  0  0  0  0  0
  1  5  1  0  0  0  0
  1  6  1  0  0  0  0
  1  7  2  0  0  0  0
  2  3  1  0  0  0  0
  2  4  1  0  0  0  0
  3  5  1  0  0  0  0
  4  6  1  0  0  0  0
  2  8  1  0  0  0  0
  2  9  1  0  0  0  0
  3 10  1  0  0  0  0
  3 11  1  0  0  0  0
  4 12  1  0  0  0  0
  4 13  1  0  0  0  0
  5 14  1  0  0  0  0
  6 15  1  0  0  0  0
M  END
> <Name>
IA_180.cdx

> <SourceTag>
IA_180

> <Gold.Version>
5.2

> <Gold.Id.Protein>
6HGV|6HGV_protein|mol2

> <Gold.Goldscore.Fitness>
31.4935

> <Gold.Goldscore.Internal.Vdw>
-0.0000

> <Gold.Goldscore.Internal.Torsion>
-0.0000

> <Gold.Goldscore.External.Vdw>
19.8520

> <Gold.Goldscore.Internal.HBond>
0.0000

> <Gold.Goldscore.External.HBond>
4.1971

> <Gold.Goldscore.Internal.Correction>
0.0000

> <Gold.Goldscore.Hbonds>
donor molecule, donor type, donor heavy atom, donor atom, acceptor molecule, acceptor atom, score
      P1  H  1931  4507       L1     7  0.95
      L1  H     5    14       P1   853  0.38

> <Gold.Goldscore.Internal.Vdw.Weighted>
-0.0000

> <Gold.Goldscore.Internal.Torsion.Weighted>
-0.0000

> <Gold.Goldscore.External.Vdw.Weighted>
27.2964

> <Gold.Goldscore.Internal.HBond.Weighted>
0.0000

> <Gold.Goldscore.External.HBond.Weighted>
4.1971

> <Gold.Goldscore.Internal.Correction.Weighted>
0.0000

> <Gold.Protein.RotatedTorsions>
[ 3781 1176 1175 1172 ] final  137.32 input   60.00 | X-H torsion
[ 3847 1247 1246 1244 ] final  150.57 input   60.00 | X-H torsion
[ 4507 1931 1930 1928 ] final   44.38 input   60.00 | X-H torsion
[ 3677 1070 1069 1066 ] final  -62.04 input   60.00 | X-H torsion
[ 3525  925  924  922 ] final  154.48 input   59.99 | X-H torsion
[ 4531 1957 1955 1953 ] final  150.70 input   60.00 | X-H torsion

> <Gold.Protein.ActiveResidues>
 PHE267  PRO268  MET310  ASP335  TRP336  MET339  TYR343  THR360  PRO361  ILE363 
 PRO371  SER374  ILE375  ASN378  PHE381  TYR383  GLN384  PHE387  LEU408  LEU417 
 MET419  LEU428  TYR466  MET469  ASN472  ASP496  VAL498  LEU499  MET503  HIS524 
 TRP525 

> <Gold.Protein.RotatedAtoms>
   -2.0729  -30.2739  -29.7816 H   0  0  0  0  0  0  0  0  0  0  0  0  # atno 3525 bound_to 925 
  -12.2934  -23.8307  -31.1859 H   0  0  0  0  0  0  0  0  0  0  0  0  # atno 3677 bound_to 1070
   -9.6199  -36.9151  -32.4274 H   0  0  0  0  0  0  0  0  0  0  0  0  # atno 3781 bound_to 1176
  -14.3877  -27.8245  -37.9157 H   0  0  0  0  0  0  0  0  0  0  0  0  # atno 3847 bound_to 1247
  -12.7807  -24.8780  -38.7960 H   0  0  0  0  0  0  0  0  0  0  0  0  # atno 4507 bound_to 1931
   -1.8923  -34.0199  -36.8987 H   0  0  0  0  0  0  0  0  0  0  0  0  # atno 4531 bound_to 1957
  -10.8366  -37.3540  -33.4149 LP  0  0  0  0  0  0  0  0  0  0  0  0  # atno 5205 bound_to 1176
   -9.6572  -36.3637  -33.9579 LP  0  0  0  0  0  0  0  0  0  0  0  0  # atno 5206 bound_to 1176
  -15.2756  -28.9435  -37.1364 LP  0  0  0  0  0  0  0  0  0  0  0  0  # atno 5215 bound_to 1247
  -15.9069  -27.4709  -37.4519 LP  0  0  0  0  0  0  0  0  0  0  0  0  # atno 5216 bound_to 1247
  -13.7012  -25.0746  -40.1234 LP  0  0  0  0  0  0  0  0  0  0  0  0  # atno 5217 bound_to 1931
  -12.7149  -23.7795  -39.9947 LP  0  0  0  0  0  0  0  0  0  0  0  0  # atno 5218 bound_to 1931
  -11.0903  -22.7353  -31.1565 LP  0  0  0  0  0  0  0  0  0  0  0  0  # atno 5224 bound_to 1070
  -12.4680  -22.4618  -30.3235 LP  0  0  0  0  0  0  0  0  0  0  0  0  # atno 5225 bound_to 1070

$$$$
IA_137.cdx|SeH_inactivess_minimized|sdf|39|dock10
  -GOLD-   4172119283D 1   1.00000     0.00000

 44 45  0  0  0  0  0  0  0  0  1 V2000
  -19.6707  -23.2008  -38.5231 C   0  0  0  0  0  0  0  0  0  0  0  0
  -18.6869  -23.2851  -39.5039 C   0  0  0  0  0  0  0  0  0  0  0  0
  -19.4518  -23.7612  -37.2643 C   0  0  0  0  0  0  0  0  0  0  0  0
  -17.4806  -23.9301  -39.2296 C   0  0  0  0  0  0  0  0  0  0  0  0
  -18.0063  -24.9837  -35.7092 C   0  0  0  0  0  0  0  0  0  0  0  0
  -16.8000  -25.6287  -35.4349 C   0  0  0  0  0  0  0  0  0  0  0  0
  -16.0349  -25.1527  -37.6747 C   0  0  0  0  0  0  0  0  0  0  0  0
  -18.2435  -24.4141  -36.9707 C   0  0  0  0  0  0  0  0  0  0  0  0
  -17.2432  -24.4998  -37.9681 C   0  0  0  0  0  0  0  0  0  0  0  0
  -15.8162  -25.7131  -36.4158 C   0  0  0  0  0  0  0  0  0  0  0  0
  -13.3619  -26.1924  -36.7726 C   0  0  0  0  0  0  0  0  0  0  0  0
  -10.0321  -31.5644  -35.3810 C   0  0  0  0  0  0  0  0  0  0  0  0
  -11.0184  -25.2365  -33.8401 C   0  0  0  0  0  0  0  0  0  0  0  0
  -11.0246  -27.0705  -36.6487 C   0  0  0  0  0  0  0  0  0  0  0  0
   -9.6970  -30.1244  -35.0558 C   0  0  0  0  0  0  0  0  0  0  0  0
   -9.8452  -26.1581  -34.0973 C   0  0  0  0  0  0  0  0  0  0  0  0
  -10.1375  -27.8861  -35.7068 C   0  0  0  0  0  0  0  0  0  0  0  0
  -14.6103  -26.3588  -36.1400 N   0  0  0  0  0  0  0  0  0  0  0  0
  -12.3976  -27.0284  -36.2006 N   0  0  0  0  0  0  0  0  0  0  0  0
  -13.1200  -25.4259  -37.7020 O   0  0  0  0  0  0  0  0  0  0  0  0
  -10.4702  -29.2698  -35.8879 O   0  0  0  0  0  0  0  0  0  0  0  0
  -10.3330  -27.4680  -34.3527 O   0  0  0  0  0  0  0  0  0  0  0  0
  -20.6094  -22.6981  -38.7370 H   0  0  0  0  0  0  0  0  0  0  0  0
  -18.8582  -22.8489  -40.4837 H   0  0  0  0  0  0  0  0  0  0  0  0
  -20.2350  -23.6835  -36.5129 H   0  0  0  0  0  0  0  0  0  0  0  0
  -16.7259  -23.9846  -40.0116 H   0  0  0  0  0  0  0  0  0  0  0  0
  -18.7611  -24.9300  -34.9275 H   0  0  0  0  0  0  0  0  0  0  0  0
  -16.6403  -26.0618  -34.4506 H   0  0  0  0  0  0  0  0  0  0  0  0
  -15.2584  -25.2247  -38.4350 H   0  0  0  0  0  0  0  0  0  0  0  0
  -11.1032  -31.7516  -35.2643 H   0  0  0  0  0  0  0  0  0  0  0  0
   -9.7409  -31.8059  -36.4085 H   0  0  0  0  0  0  0  0  0  0  0  0
   -9.4808  -32.2464  -34.7252 H   0  0  0  0  0  0  0  0  0  0  0  0
  -11.6927  -25.6626  -33.0920 H   0  0  0  0  0  0  0  0  0  0  0  0
  -10.6717  -24.2594  -33.4879 H   0  0  0  0  0  0  0  0  0  0  0  0
  -11.5806  -25.0609  -34.7633 H   0  0  0  0  0  0  0  0  0  0  0  0
  -10.6857  -26.0335  -36.7221 H   0  0  0  0  0  0  0  0  0  0  0  0
  -11.0334  -27.5122  -37.6502 H   0  0  0  0  0  0  0  0  0  0  0  0
   -8.6361  -29.9270  -35.2369 H   0  0  0  0  0  0  0  0  0  0  0  0
   -9.9294  -29.9027  -34.0100 H   0  0  0  0  0  0  0  0  0  0  0  0
   -9.1851  -26.1916  -33.2254 H   0  0  0  0  0  0  0  0  0  0  0  0
   -9.2739  -25.8190  -34.9666 H   0  0  0  0  0  0  0  0  0  0  0  0
   -9.0889  -27.7476  -36.0024 H   0  0  0  0  0  0  0  0  0  0  0  0
  -14.6196  -27.0465  -35.3795 H   0  0  0  0  0  0  0  0  0  0  0  0
  -12.6752  -27.6340  -35.4347 H   0  0  0  0  0  0  0  0  0  0  0  0
  1  2  1  0  0  0  0
  1  3  2  0  0  0  0
  2  4  2  0  0  0  0
  3  8  1  0  0  0  0
  4  9  1  0  0  0  0
  5  6  1  0  0  0  0
  5  8  2  0  0  0  0
  6 10  2  0  0  0  0
  7  9  2  0  0  0  0
  7 10  1  0  0  0  0
  8  9  1  0  0  0  0
 10 18  1  0  0  0  0
 11 18  1  0  0  0  0
 11 19  1  0  0  0  0
 11 20  2  0  0  0  0
 12 15  1  0  0  0  0
 13 16  1  0  0  0  0
 14 17  1  0  0  0  0
 14 19  1  0  0  0  0
 15 21  1  0  0  0  0
 16 22  1  0  0  0  0
 17 21  1  0  0  0  0
 17 22  1  0  0  0  0
  1 23  1  0  0  0  0
  2 24  1  0  0  0  0
  3 25  1  0  0  0  0
  4 26  1  0  0  0  0
  5 27  1  0  0  0  0
  6 28  1  0  0  0  0
  7 29  1  0  0  0  0
 12 30  1  0  0  0  0
 12 31  1  0  0  0  0
 12 32  1  0  0  0  0
 13 33  1  0  0  0  0
 13 34  1  0  0  0  0
 13 35  1  0  0  0  0
 14 36  1  0  0  0  0
 14 37  1  0  0  0  0
 15 38  1  0  0  0  0
 15 39  1  0  0  0  0
 16 40  1  0  0  0  0
 16 41  1  0  0  0  0
 17 42  1  0  0  0  0
 18 43  1  0  0  0  0
 19 44  1  0  0  0  0
M  END
> <Name>
IA_137.cdx

> <SourceTag>
IA_137

> <Gold.Version>
5.2

> <Gold.Id.Protein>
6HGV|6HGV_protein|mol2

> <Gold.Goldscore.Fitness>
60.6433

> <Gold.Goldscore.Internal.Vdw>
-6.2892

> <Gold.Goldscore.Internal.Torsion>
-5.6172

> <Gold.Goldscore.External.Vdw>
45.3452

> <Gold.Goldscore.Internal.HBond>
0.0000

> <Gold.Goldscore.External.HBond>
2.2403

> <Gold.Goldscore.Internal.Correction>
-7.9597

> <Gold.Goldscore.Hbonds>
donor molecule, donor type, donor heavy atom, donor atom, acceptor molecule, acceptor atom, score
      P1  H  1256  3854       L1    21  0.37
      P1  H  1931  4507       L1    20  0.75

> <Gold.Goldscore.Internal.Vdw.Weighted>
-6.2892

> <Gold.Goldscore.Internal.Torsion.Weighted>
-5.6172

> <Gold.Goldscore.External.Vdw.Weighted>
62.3497

> <Gold.Goldscore.Internal.HBond.Weighted>
0.0000

> <Gold.Goldscore.External.HBond.Weighted>
2.2403

> <Gold.Goldscore.Internal.Correction.Weighted>
-7.9597

> <Gold.Protein.RotatedTorsions>
[ 3781 1176 1175 1172 ] final -119.91 input   60.00 | X-H torsion
[ 3847 1247 1246 1244 ] final   -2.42 input   60.00 | X-H torsion
[ 4507 1931 1930 1928 ] final   28.13 input   60.00 | X-H torsion
[ 3677 1070 1069 1066 ] final   98.71 input   60.00 | X-H torsion
[ 3525  925  924  922 ] final  130.51 input   59.99 | X-H torsion
[ 4531 1957 1955 1953 ] final -165.01 input   60.00 | X-H torsion

> <Gold.Protein.ActiveResidues>
 PHE267  PRO268  MET310  ASP335  TRP336  MET339  TYR343  THR360  PRO361  ILE363 
 PRO371  SER374  ILE375  ASN378  PHE381  TYR383  GLN384  PHE387  LEU408  LEU417 
 MET419  LEU428  TYR466  MET469  ASN472  ASP496  VAL498  LEU499  MET503  HIS524 
 TRP525 

> <Gold.Protein.RotatedAtoms>
   -2.0744  -30.2378  -30.1688 H   0  0  0  0  0  0  0  0  0  0  0  0  # atno 3525 bound_to 925 
  -11.8877  -22.1872  -30.4494 H   0  0  0  0  0  0  0  0  0  0  0  0  # atno 3677 bound_to 1070
   -9.4686  -36.3173  -33.7541 H   0  0  0  0  0  0  0  0  0  0  0  0  # atno 3781 bound_to 1176
  -15.7380  -28.6903  -37.0545 H   0  0  0  0  0  0  0  0  0  0  0  0  # atno 3847 bound_to 1247
  -12.9502  -25.0738  -38.8502 H   0  0  0  0  0  0  0  0  0  0  0  0  # atno 4507 bound_to 1931
   -1.3635  -33.5615  -36.9913 H   0  0  0  0  0  0  0  0  0  0  0  0  # atno 4531 bound_to 1957
   -9.8388  -37.0812  -32.3658 LP  0  0  0  0  0  0  0  0  0  0  0  0  # atno 5205 bound_to 1176
  -10.8074  -37.2385  -33.6711 LP  0  0  0  0  0  0  0  0  0  0  0  0  # atno 5206 bound_to 1176
  -15.5098  -27.2163  -37.7052 LP  0  0  0  0  0  0  0  0  0  0  0  0  # atno 5215 bound_to 1247
  -14.3128  -28.3262  -37.7504 LP  0  0  0  0  0  0  0  0  0  0  0  0  # atno 5216 bound_to 1247
  -13.6652  -24.8771  -40.2987 LP  0  0  0  0  0  0  0  0  0  0  0  0  # atno 5217 bound_to 1931
  -12.5802  -23.7797  -39.7649 LP  0  0  0  0  0  0  0  0  0  0  0  0  # atno 5218 bound_to 1931
  -12.7322  -23.5324  -30.8033 LP  0  0  0  0  0  0  0  0  0  0  0  0  # atno 5224 bound_to 1070
  -11.2346  -23.3197  -31.4184 LP  0  0  0  0  0  0  0  0  0  0  0  0  # atno 5225 bound_to 1070

$$$$
IA_104.cdx|SeH_inactivess_minimized|sdf|6|dock4
  -GOLD-   4172118333D 1   1.00000     0.00000

 62 61  0  0  0  0  0  0  0  0  1 V2000
  -24.2847  -22.2937  -39.1973 C   0  0  0  0  0  0  0  0  0  0  0  0
   -4.4022  -33.1015  -34.7259 C   0  0  0  0  0  0  0  0  0  0  0  0
   -4.1450  -31.7725  -34.0326 C   0  0  0  0  0  0  0  0  0  0  0  0
   -4.8535  -30.5905  -34.6990 C   0  0  0  0  0  0  0  0  0  0  0  0
   -6.3440  -30.5115  -34.3588 C   0  0  0  0  0  0  0  0  0  0  0  0
   -7.0706  -29.3727  -35.0825 C   0  0  0  0  0  0  0  0  0  0  0  0
   -8.5674  -29.2441  -34.7808 C   0  0  0  0  0  0  0  0  0  0  0  0
   -9.2925  -28.1054  -35.5048 C   0  0  0  0  0  0  0  0  0  0  0  0
  -10.7654  -27.9143  -35.1283 C   0  0  0  0  0  0  0  0  0  0  0  0
  -11.5771  -27.0087  -36.0596 C   0  0  0  0  0  0  0  0  0  0  0  0
  -13.0669  -26.9610  -35.7147 C   0  0  0  0  0  0  0  0  0  0  0  0
  -13.8285  -26.0438  -36.6744 C   0  0  0  0  0  0  0  0  0  0  0  0
  -15.2748  -25.8411  -36.2195 C   0  0  0  0  0  0  0  0  0  0  0  0
  -16.1478  -25.3127  -37.3589 C   0  0  0  0  0  0  0  0  0  0  0  0
  -17.5303  -24.8952  -36.8526 C   0  0  0  0  0  0  0  0  0  0  0  0
  -18.4313  -24.4499  -38.0062 C   0  0  0  0  0  0  0  0  0  0  0  0
  -19.8131  -23.9710  -37.5508 C   0  0  0  0  0  0  0  0  0  0  0  0
  -20.8129  -23.6540  -38.6696 C   0  0  0  0  0  0  0  0  0  0  0  0
  -22.0989  -22.9754  -38.2077 C   0  0  0  0  0  0  0  0  0  0  0  0
  -24.8387  -21.8854  -40.3973 N   0  0  0  0  0  0  0  0  0  0  0  0
  -22.9181  -22.5394  -39.3046 N   0  0  0  0  0  0  0  0  0  0  0  0
  -24.9444  -22.4186  -38.1669 O   0  0  0  0  0  0  0  0  0  0  0  0
   -4.0345  -33.0647  -35.7564 H   0  0  0  0  0  0  0  0  0  0  0  0
   -5.4725  -33.3289  -34.7559 H   0  0  0  0  0  0  0  0  0  0  0  0
   -3.8873  -33.9240  -34.2205 H   0  0  0  0  0  0  0  0  0  0  0  0
   -4.4464  -31.8447  -32.9811 H   0  0  0  0  0  0  0  0  0  0  0  0
   -3.0656  -31.5789  -34.0399 H   0  0  0  0  0  0  0  0  0  0  0  0
   -4.3614  -29.6665  -34.3716 H   0  0  0  0  0  0  0  0  0  0  0  0
   -4.7157  -30.6571  -35.7842 H   0  0  0  0  0  0  0  0  0  0  0  0
   -6.8361  -31.4634  -34.5841 H   0  0  0  0  0  0  0  0  0  0  0  0
   -6.4565  -30.3529  -33.2791 H   0  0  0  0  0  0  0  0  0  0  0  0
   -6.5677  -28.4291  -34.8402 H   0  0  0  0  0  0  0  0  0  0  0  0
   -6.9491  -29.5078  -36.1649 H   0  0  0  0  0  0  0  0  0  0  0  0
   -9.0528  -30.1967  -35.0244 H   0  0  0  0  0  0  0  0  0  0  0  0
   -8.7090  -29.1134  -33.7012 H   0  0  0  0  0  0  0  0  0  0  0  0
   -8.7466  -27.1730  -35.3174 H   0  0  0  0  0  0  0  0  0  0  0  0
   -9.2302  -28.2655  -36.5879 H   0  0  0  0  0  0  0  0  0  0  0  0
  -11.2415  -28.9024  -35.0942 H   0  0  0  0  0  0  0  0  0  0  0  0
  -10.8316  -27.5147  -34.1095 H   0  0  0  0  0  0  0  0  0  0  0  0
  -11.4462  -27.3239  -37.1010 H   0  0  0  0  0  0  0  0  0  0  0  0
  -11.1621  -25.9951  -35.9912 H   0  0  0  0  0  0  0  0  0  0  0  0
  -13.4971  -27.9673  -35.7655 H   0  0  0  0  0  0  0  0  0  0  0  0
  -13.1948  -26.6033  -34.6860 H   0  0  0  0  0  0  0  0  0  0  0  0
  -13.3229  -25.0723  -36.7337 H   0  0  0  0  0  0  0  0  0  0  0  0
  -13.8173  -26.4767  -37.6822 H   0  0  0  0  0  0  0  0  0  0  0  0
  -15.3003  -25.1362  -35.3797 H   0  0  0  0  0  0  0  0  0  0  0  0
  -15.6820  -26.7924  -35.8558 H   0  0  0  0  0  0  0  0  0  0  0  0
  -16.2569  -26.0871  -38.1278 H   0  0  0  0  0  0  0  0  0  0  0  0
  -15.6547  -24.4545  -37.8315 H   0  0  0  0  0  0  0  0  0  0  0  0
  -17.4251  -24.0763  -36.1309 H   0  0  0  0  0  0  0  0  0  0  0  0
  -17.9871  -25.7392  -36.3237 H   0  0  0  0  0  0  0  0  0  0  0  0
  -18.5354  -25.2636  -38.7331 H   0  0  0  0  0  0  0  0  0  0  0  0
  -17.9463  -23.6227  -38.5400 H   0  0  0  0  0  0  0  0  0  0  0  0
  -19.6814  -23.0816  -36.9225 H   0  0  0  0  0  0  0  0  0  0  0  0
  -20.2561  -24.7369  -36.9017 H   0  0  0  0  0  0  0  0  0  0  0  0
  -21.0670  -24.5958  -39.1729 H   0  0  0  0  0  0  0  0  0  0  0  0
  -20.3308  -23.0246  -39.4263 H   0  0  0  0  0  0  0  0  0  0  0  0
  -21.8574  -22.0852  -37.6180 H   0  0  0  0  0  0  0  0  0  0  0  0
  -22.7019  -23.6366  -37.5790 H   0  0  0  0  0  0  0  0  0  0  0  0
  -25.8255  -21.6665  -40.4817 H   0  0  0  0  0  0  0  0  0  0  0  0
  -24.2706  -21.7912  -41.2327 H   0  0  0  0  0  0  0  0  0  0  0  0
  -22.4745  -22.4022  -40.2116 H   0  0  0  0  0  0  0  0  0  0  0  0
  1 20  1  0  0  0  0
  1 21  1  0  0  0  0
  1 22  2  0  0  0  0
  2  3  1  0  0  0  0
  3  4  1  0  0  0  0
  4  5  1  0  0  0  0
  5  6  1  0  0  0  0
  6  7  1  0  0  0  0
  7  8  1  0  0  0  0
  8  9  1  0  0  0  0
  9 10  1  0  0  0  0
 10 11  1  0  0  0  0
 11 12  1  0  0  0  0
 12 13  1  0  0  0  0
 13 14  1  0  0  0  0
 14 15  1  0  0  0  0
 15 16  1  0  0  0  0
 16 17  1  0  0  0  0
 17 18  1  0  0  0  0
 18 19  1  0  0  0  0
 19 21  1  0  0  0  0
  2 23  1  0  0  0  0
  2 24  1  0  0  0  0
  2 25  1  0  0  0  0
  3 26  1  0  0  0  0
  3 27  1  0  0  0  0
  4 28  1  0  0  0  0
  4 29  1  0  0  0  0
  5 30  1  0  0  0  0
  5 31  1  0  0  0  0
  6 32  1  0  0  0  0
  6 33  1  0  0  0  0
  7 34  1  0  0  0  0
  7 35  1  0  0  0  0
  8 36  1  0  0  0  0
  8 37  1  0  0  0  0
  9 38  1  0  0  0  0
  9 39  1  0  0  0  0
 10 40  1  0  0  0  0
 10 41  1  0  0  0  0
 11 42  1  0  0  0  0
 11 43  1  0  0  0  0
 12 44  1  0  0  0  0
 12 45  1  0  0  0  0
 13 46  1  0  0  0  0
 13 47  1  0  0  0  0
 14 48  1  0  0  0  0
 14 49  1  0  0  0  0
 15 50  1  0  0  0  0
 15 51  1  0  0  0  0
 16 52  1  0  0  0  0
 16 53  1  0  0  0  0
 17 54  1  0  0  0  0
 17 55  1  0  0  0  0
 18 56  1  0  0  0  0
 18 57  1  0  0  0  0
 19 58  1  0  0  0  0
 19 59  1  0  0  0  0
 20 60  1  0  0  0  0
 20 61  1  0  0  0  0
 21 62  1  0  0  0  0
M  END
> <Name>
IA_104.cdx

> <SourceTag>
IA_104

> <Gold.Version>
5.2

> <Gold.Id.Protein>
6HGV|6HGV_protein|mol2

> <Gold.Goldscore.Fitness>
71.6771

> <Gold.Goldscore.Internal.Vdw>
-5.7344

> <Gold.Goldscore.Internal.Torsion>
-3.2023

> <Gold.Goldscore.External.Vdw>
53.5583

> <Gold.Goldscore.Internal.HBond>
0.0000

> <Gold.Goldscore.External.HBond>
0.0000

> <Gold.Goldscore.Internal.Correction>
-6.9712

> <Gold.Goldscore.Internal.Vdw.Weighted>
-5.7344

> <Gold.Goldscore.Internal.Torsion.Weighted>
-3.2023

> <Gold.Goldscore.External.Vdw.Weighted>
73.6426

> <Gold.Goldscore.Internal.HBond.Weighted>
0.0000

> <Gold.Goldscore.External.HBond.Weighted>
0.0000

> <Gold.Goldscore.Internal.Correction.Weighted>
-6.9712

> <Gold.Protein.RotatedTorsions>
[ 3781 1176 1175 1172 ] final  132.21 input   60.00 | X-H torsion
[ 3847 1247 1246 1244 ] final   11.19 input   60.00 | X-H torsion
[ 4507 1931 1930 1928 ] final   89.92 input   60.00 | X-H torsion
[ 3677 1070 1069 1066 ] final  -43.00 input   60.00 | X-H torsion
[ 3525  925  924  922 ] final    9.61 input   59.99 | X-H torsion
[ 4531 1957 1955 1953 ] final  118.90 input   60.00 | X-H torsion

> <Gold.Protein.ActiveResidues>
 PHE267  PRO268  MET310  ASP335  TRP336  MET339  TYR343  THR360  PRO361  ILE363 
 PRO371  SER374  ILE375  ASN378  PHE381  TYR383  GLN384  PHE387  LEU408  LEU417 
 MET419  LEU428  TYR466  MET469  ASN472  ASP496  VAL498  LEU499  MET503  HIS524 
 TRP525 

> <Gold.Protein.RotatedAtoms>
   -3.5007  -29.5769  -30.5955 H   0  0  0  0  0  0  0  0  0  0  0  0  # atno 3525 bound_to 925 
  -12.5323  -23.7347  -31.0138 H   0  0  0  0  0  0  0  0  0  0  0  0  # atno 3677 bound_to 1070
   -9.6818  -36.9656  -32.4030 H   0  0  0  0  0  0  0  0  0  0  0  0  # atno 3781 bound_to 1176
  -15.5610  -28.8229  -37.0732 H   0  0  0  0  0  0  0  0  0  0  0  0  # atno 3847 bound_to 1247
  -12.4619  -24.2584  -38.9953 H   0  0  0  0  0  0  0  0  0  0  0  0  # atno 4507 bound_to 1931
   -2.3958  -34.0418  -36.8033 H   0  0  0  0  0  0  0  0  0  0  0  0  # atno 4531 bound_to 1957
  -10.8354  -37.3238  -33.4933 LP  0  0  0  0  0  0  0  0  0  0  0  0  # atno 5205 bound_to 1176
   -9.5960  -36.3431  -33.9041 LP  0  0  0  0  0  0  0  0  0  0  0  0  # atno 5206 bound_to 1176
  -15.6948  -27.2905  -37.6041 LP  0  0  0  0  0  0  0  0  0  0  0  0  # atno 5215 bound_to 1247
  -14.3060  -28.1185  -37.8326 LP  0  0  0  0  0  0  0  0  0  0  0  0  # atno 5216 bound_to 1247
  -13.5377  -25.3787  -39.4804 LP  0  0  0  0  0  0  0  0  0  0  0  0  # atno 5217 bound_to 1931
  -13.1994  -24.0993  -40.4371 LP  0  0  0  0  0  0  0  0  0  0  0  0  # atno 5218 bound_to 1931
  -11.1052  -23.0090  -31.3051 LP  0  0  0  0  0  0  0  0  0  0  0  0  # atno 5224 bound_to 1070
  -12.2125  -22.2846  -30.3482 LP  0  0  0  0  0  0  0  0  0  0  0  0  # atno 5225 bound_to 1070

$$$$
IA_80.cdx|SeH_inactivess_minimized|sdf|158|dock10
  -GOLD-   4172122173D 1   1.00000     0.00000

 32 31  0  0  0  0  0  0  0  0  1 V2000
  -13.1866  -26.0739  -36.5761 C   0  0  0  0  0  0  0  0  0  0  0  0
   -9.6001  -29.1151  -34.2347 C   0  0  0  0  0  0  0  0  0  0  0  0
  -11.7306  -30.3104  -33.8050 C   0  0  0  0  0  0  0  0  0  0  0  0
  -11.0033  -28.5130  -32.2424 C   0  0  0  0  0  0  0  0  0  0  0  0
  -10.6996  -25.7983  -33.7671 C   0  0  0  0  0  0  0  0  0  0  0  0
  -10.2782  -26.6519  -36.0637 C   0  0  0  0  0  0  0  0  0  0  0  0
  -11.8583  -27.9466  -34.6167 C   0  0  0  0  0  0  0  0  0  0  0  0
  -11.0390  -28.9279  -33.7194 C   0  0  0  0  0  0  0  0  0  0  0  0
  -11.3429  -26.5174  -34.9557 C   0  0  0  0  0  0  0  0  0  0  0  0
  -14.1401  -25.1194  -36.8818 N   0  0  0  0  0  0  0  0  0  0  0  0
  -12.4182  -25.6980  -35.4885 N   0  0  0  0  0  0  0  0  0  0  0  0
  -13.0618  -27.1188  -37.2123 O   0  0  0  0  0  0  0  0  0  0  0  0
   -9.1150  -29.9981  -33.8153 H   0  0  0  0  0  0  0  0  0  0  0  0
   -8.9781  -28.2440  -34.0009 H   0  0  0  0  0  0  0  0  0  0  0  0
   -9.5878  -29.2432  -35.3237 H   0  0  0  0  0  0  0  0  0  0  0  0
  -11.2081  -31.0523  -33.1900 H   0  0  0  0  0  0  0  0  0  0  0  0
  -11.7486  -30.6823  -34.8359 H   0  0  0  0  0  0  0  0  0  0  0  0
  -12.7684  -30.2606  -33.4559 H   0  0  0  0  0  0  0  0  0  0  0  0
  -10.2106  -27.7776  -32.0603 H   0  0  0  0  0  0  0  0  0  0  0  0
  -11.9423  -28.0502  -31.9245 H   0  0  0  0  0  0  0  0  0  0  0  0
  -10.8047  -29.3732  -31.5937 H   0  0  0  0  0  0  0  0  0  0  0  0
  -11.3187  -25.8964  -32.8668 H   0  0  0  0  0  0  0  0  0  0  0  0
  -10.5748  -24.7289  -33.9665 H   0  0  0  0  0  0  0  0  0  0  0  0
   -9.7274  -26.2278  -33.5089 H   0  0  0  0  0  0  0  0  0  0  0  0
  -10.1648  -25.7170  -36.6240 H   0  0  0  0  0  0  0  0  0  0  0  0
   -9.3001  -26.9150  -35.6436 H   0  0  0  0  0  0  0  0  0  0  0  0
  -10.5437  -27.4416  -36.7767 H   0  0  0  0  0  0  0  0  0  0  0  0
  -12.8445  -27.8194  -34.1445 H   0  0  0  0  0  0  0  0  0  0  0  0
  -12.0622  -28.4669  -35.5641 H   0  0  0  0  0  0  0  0  0  0  0  0
  -14.7879  -25.2410  -37.6528 H   0  0  0  0  0  0  0  0  0  0  0  0
  -14.2209  -24.2655  -36.3398 H   0  0  0  0  0  0  0  0  0  0  0  0
  -12.6141  -24.8114  -35.0436 H   0  0  0  0  0  0  0  0  0  0  0  0
  1 10  1  0  0  0  0
  1 11  1  0  0  0  0
  1 12  2  0  0  0  0
  2  8  1  0  0  0  0
  3  8  1  0  0  0  0
  4  8  1  0  0  0  0
  5  9  1  0  0  0  0
  6  9  1  0  0  0  0
  7  8  1  0  0  0  0
  7  9  1  0  0  0  0
  9 11  1  0  0  0  0
  2 13  1  0  0  0  0
  2 14  1  0  0  0  0
  2 15  1  0  0  0  0
  3 16  1  0  0  0  0
  3 17  1  0  0  0  0
  3 18  1  0  0  0  0
  4 19  1  0  0  0  0
  4 20  1  0  0  0  0
  4 21  1  0  0  0  0
  5 22  1  0  0  0  0
  5 23  1  0  0  0  0
  5 24  1  0  0  0  0
  6 25  1  0  0  0  0
  6 26  1  0  0  0  0
  6 27  1  0  0  0  0
  7 28  1  0  0  0  0
  7 29  1  0  0  0  0
 10 30  1  0  0  0  0
 10 31  1  0  0  0  0
 11 32  1  0  0  0  0
M  END
> <Name>
IA_80.cdx

> <SourceTag>
IA_80

> <Gold.Version>
5.2

> <Gold.Id.Protein>
6HGV|6HGV_protein|mol2

> <Gold.Goldscore.Fitness>
29.6614

> <Gold.Goldscore.Internal.Vdw>
-10.0359

> <Gold.Goldscore.Internal.Torsion>
-3.8456

> <Gold.Goldscore.External.Vdw>
22.6599

> <Gold.Goldscore.Internal.HBond>
0.0000

> <Gold.Goldscore.External.HBond>
6.7335

> <Gold.Goldscore.Internal.Correction>
-5.6520

> <Gold.Goldscore.Hbonds>
donor molecule, donor type, donor heavy atom, donor atom, acceptor molecule, acceptor atom, score
      P1  H  1247  3847       L1    12  0.07
      L1  H    10    31       P1   853  0.99
      L1  H    11    32       P1   853  0.10

> <Gold.Goldscore.Internal.Vdw.Weighted>
-10.0359

> <Gold.Goldscore.Internal.Torsion.Weighted>
-3.8456

> <Gold.Goldscore.External.Vdw.Weighted>
31.1573

> <Gold.Goldscore.Internal.HBond.Weighted>
0.0000

> <Gold.Goldscore.External.HBond.Weighted>
6.7335

> <Gold.Goldscore.Internal.Correction.Weighted>
-5.6520

> <Gold.Protein.RotatedTorsions>
[ 3781 1176 1175 1172 ] final  -49.03 input   60.00 | X-H torsion
[ 3847 1247 1246 1244 ] final  125.59 input   60.00 | X-H torsion
[ 4507 1931 1930 1928 ] final   88.97 input   60.00 | X-H torsion
[ 3677 1070 1069 1066 ] final  -94.74 input   60.00 | X-H torsion
[ 3525  925  924  922 ] final -120.02 input   59.99 | X-H torsion
[ 4531 1957 1955 1953 ] final  173.53 input   60.00 | X-H torsion

> <Gold.Protein.ActiveResidues>
 PHE267  PRO268  MET310  ASP335  TRP336  MET339  TYR343  THR360  PRO361  ILE363 
 PRO371  SER374  ILE375  ASN378  PHE381  TYR383  GLN384  PHE387  LEU408  LEU417 
 MET419  LEU428  TYR466  MET469  ASN472  ASP496  VAL498  LEU499  MET503  HIS524 
 TRP525 

> <Gold.Protein.RotatedAtoms>
   -3.0221  -29.9307  -29.0090 H   0  0  0  0  0  0  0  0  0  0  0  0  # atno 3525 bound_to 925 
  -11.8124  -23.7856  -31.3967 H   0  0  0  0  0  0  0  0  0  0  0  0  # atno 3677 bound_to 1070
  -10.3748  -36.7802  -34.1324 H   0  0  0  0  0  0  0  0  0  0  0  0  # atno 3781 bound_to 1176
  -14.3097  -28.2048  -37.8008 H   0  0  0  0  0  0  0  0  0  0  0  0  # atno 3847 bound_to 1247
  -12.4652  -24.2705  -38.9863 H   0  0  0  0  0  0  0  0  0  0  0  0  # atno 4507 bound_to 1931
   -1.5756  -33.8358  -36.9557 H   0  0  0  0  0  0  0  0  0  0  0  0  # atno 4531 bound_to 1957
   -9.2405  -36.4382  -33.0169 LP  0  0  0  0  0  0  0  0  0  0  0  0  # atno 5205 bound_to 1176
  -10.4930  -37.4154  -32.6389 LP  0  0  0  0  0  0  0  0  0  0  0  0  # atno 5206 bound_to 1176
  -15.6393  -28.7771  -37.0573 LP  0  0  0  0  0  0  0  0  0  0  0  0  # atno 5215 bound_to 1247
  -15.6216  -27.2543  -37.6467 LP  0  0  0  0  0  0  0  0  0  0  0  0  # atno 5216 bound_to 1247
  -13.5447  -25.3771  -39.4942 LP  0  0  0  0  0  0  0  0  0  0  0  0  # atno 5217 bound_to 1931
  -13.1891  -24.0887  -40.4323 LP  0  0  0  0  0  0  0  0  0  0  0  0  # atno 5218 bound_to 1931
  -11.2802  -22.3505  -30.8440 LP  0  0  0  0  0  0  0  0  0  0  0  0  # atno 5224 bound_to 1070
  -12.7624  -22.8919  -30.4237 LP  0  0  0  0  0  0  0  0  0  0  0  0  # atno 5225 bound_to 1070

$$$$
IA_95.cdx|SeH_inactivess_minimized|sdf|174|dock2
  -GOLD-   41821 8363D 1   1.00000     0.00000

 53 52  0  0  0  0  0  0  0  0  1 V2000
   -7.3020  -29.4913  -34.7820 C   0  0  0  0  0  0  0  0  0  0  0  0
  -21.0329  -22.9931  -38.7488 C   0  0  0  0  0  0  0  0  0  0  0  0
  -21.1632  -24.4087  -38.2081 C   0  0  0  0  0  0  0  0  0  0  0  0
  -20.1075  -24.7600  -37.1575 C   0  0  0  0  0  0  0  0  0  0  0  0
  -18.6735  -24.6751  -37.6876 C   0  0  0  0  0  0  0  0  0  0  0  0
  -17.6804  -25.2758  -36.6890 C   0  0  0  0  0  0  0  0  0  0  0  0
  -16.2198  -25.1513  -37.1325 C   0  0  0  0  0  0  0  0  0  0  0  0
  -15.2220  -25.6705  -36.0939 C   0  0  0  0  0  0  0  0  0  0  0  0
  -13.7797  -25.4434  -36.5539 C   0  0  0  0  0  0  0  0  0  0  0  0
  -12.7356  -25.9111  -35.5355 C   0  0  0  0  0  0  0  0  0  0  0  0
  -11.2784  -25.5827  -35.8777 C   0  0  0  0  0  0  0  0  0  0  0  0
  -10.2717  -25.7598  -34.7366 C   0  0  0  0  0  0  0  0  0  0  0  0
   -9.9866  -27.2274  -34.4024 C   0  0  0  0  0  0  0  0  0  0  0  0
   -9.1050  -27.9009  -35.4503 C   0  0  0  0  0  0  0  0  0  0  0  0
   -5.8454  -31.3833  -34.0731 C   0  0  0  0  0  0  0  0  0  0  0  0
   -4.9805  -31.5953  -35.3043 C   0  0  0  0  0  0  0  0  0  0  0  0
   -8.6437  -29.1963  -35.0320 N   0  0  0  0  0  0  0  0  0  0  0  0
   -7.1351  -30.8177  -34.3920 N   0  0  0  0  0  0  0  0  0  0  0  0
   -6.3834  -28.6804  -34.8919 O   0  0  0  0  0  0  0  0  0  0  0  0
   -3.4271  -32.3569  -34.8814 Cl  0  0  0  0  0  0  0  0  0  0  0  0
  -21.8799  -22.7397  -39.3942 H   0  0  0  0  0  0  0  0  0  0  0  0
  -20.1167  -22.9003  -39.3409 H   0  0  0  0  0  0  0  0  0  0  0  0
  -20.9800  -22.2578  -37.9407 H   0  0  0  0  0  0  0  0  0  0  0  0
  -22.1551  -24.5174  -37.7533 H   0  0  0  0  0  0  0  0  0  0  0  0
  -21.1157  -25.1224  -39.0389 H   0  0  0  0  0  0  0  0  0  0  0  0
  -20.2997  -25.7815  -36.8068 H   0  0  0  0  0  0  0  0  0  0  0  0
  -20.2211  -24.1009  -36.2883 H   0  0  0  0  0  0  0  0  0  0  0  0
  -18.4046  -23.6300  -37.8767 H   0  0  0  0  0  0  0  0  0  0  0  0
  -18.6133  -25.2078  -38.6430 H   0  0  0  0  0  0  0  0  0  0  0  0
  -17.9224  -26.3314  -36.5150 H   0  0  0  0  0  0  0  0  0  0  0  0
  -17.7891  -24.7641  -35.7246 H   0  0  0  0  0  0  0  0  0  0  0  0
  -16.0123  -24.0921  -37.3295 H   0  0  0  0  0  0  0  0  0  0  0  0
  -16.0776  -25.6826  -38.0815 H   0  0  0  0  0  0  0  0  0  0  0  0
  -15.3977  -25.1586  -35.1413 H   0  0  0  0  0  0  0  0  0  0  0  0
  -15.3787  -26.7415  -35.9247 H   0  0  0  0  0  0  0  0  0  0  0  0
  -13.6120  -25.9943  -37.4881 H   0  0  0  0  0  0  0  0  0  0  0  0
  -13.6262  -24.3844  -36.7910 H   0  0  0  0  0  0  0  0  0  0  0  0
  -12.8412  -26.9940  -35.4000 H   0  0  0  0  0  0  0  0  0  0  0  0
  -12.9679  -25.4642  -34.5604 H   0  0  0  0  0  0  0  0  0  0  0  0
  -11.2343  -24.5445  -36.2303 H   0  0  0  0  0  0  0  0  0  0  0  0
  -10.9571  -26.1996  -36.7252 H   0  0  0  0  0  0  0  0  0  0  0  0
   -9.3391  -25.2381  -34.9784 H   0  0  0  0  0  0  0  0  0  0  0  0
  -10.6789  -25.2641  -33.8463 H   0  0  0  0  0  0  0  0  0  0  0  0
  -10.9271  -27.7826  -34.3106 H   0  0  0  0  0  0  0  0  0  0  0  0
   -9.4801  -27.2832  -33.4314 H   0  0  0  0  0  0  0  0  0  0  0  0
   -8.2156  -27.2918  -35.6400 H   0  0  0  0  0  0  0  0  0  0  0  0
   -9.6418  -28.0259  -36.3959 H   0  0  0  0  0  0  0  0  0  0  0  0
   -5.3575  -30.7199  -33.3517 H   0  0  0  0  0  0  0  0  0  0  0  0
   -6.0339  -32.3420  -33.5798 H   0  0  0  0  0  0  0  0  0  0  0  0
   -4.7597  -30.6485  -35.8063 H   0  0  0  0  0  0  0  0  0  0  0  0
   -5.4847  -32.2576  -36.0141 H   0  0  0  0  0  0  0  0  0  0  0  0
   -9.3317  -29.9380  -34.9118 H   0  0  0  0  0  0  0  0  0  0  0  0
   -7.9578  -31.4027  -34.2835 H   0  0  0  0  0  0  0  0  0  0  0  0
  1 17  1  0  0  0  0
  1 18  1  0  0  0  0
  1 19  2  0  0  0  0
  2  3  1  0  0  0  0
  3  4  1  0  0  0  0
  4  5  1  0  0  0  0
  5  6  1  0  0  0  0
  6  7  1  0  0  0  0
  7  8  1  0  0  0  0
  8  9  1  0  0  0  0
  9 10  1  0  0  0  0
 10 11  1  0  0  0  0
 11 12  1  0  0  0  0
 12 13  1  0  0  0  0
 13 14  1  0  0  0  0
 14 17  1  0  0  0  0
 15 16  1  0  0  0  0
 15 18  1  0  0  0  0
 16 20  1  0  0  0  0
  2 21  1  0  0  0  0
  2 22  1  0  0  0  0
  2 23  1  0  0  0  0
  3 24  1  0  0  0  0
  3 25  1  0  0  0  0
  4 26  1  0  0  0  0
  4 27  1  0  0  0  0
  5 28  1  0  0  0  0
  5 29  1  0  0  0  0
  6 30  1  0  0  0  0
  6 31  1  0  0  0  0
  7 32  1  0  0  0  0
  7 33  1  0  0  0  0
  8 34  1  0  0  0  0
  8 35  1  0  0  0  0
  9 36  1  0  0  0  0
  9 37  1  0  0  0  0
 10 38  1  0  0  0  0
 10 39  1  0  0  0  0
 11 40  1  0  0  0  0
 11 41  1  0  0  0  0
 12 42  1  0  0  0  0
 12 43  1  0  0  0  0
 13 44  1  0  0  0  0
 13 45  1  0  0  0  0
 14 46  1  0  0  0  0
 14 47  1  0  0  0  0
 15 48  1  0  0  0  0
 15 49  1  0  0  0  0
 16 50  1  0  0  0  0
 16 51  1  0  0  0  0
 17 52  1  0  0  0  0
 18 53  1  0  0  0  0
M  END
> <Name>
IA_95.cdx

> <SourceTag>
IA_95

> <Gold.Version>
5.2

> <Gold.Id.Protein>
6HGV|6HGV_protein|mol2

> <Gold.Goldscore.Fitness>
65.7381

> <Gold.Goldscore.Internal.Vdw>
-5.4418

> <Gold.Goldscore.Internal.Torsion>
-2.9234

> <Gold.Goldscore.External.Vdw>
49.8492

> <Gold.Goldscore.Internal.HBond>
0.0000

> <Gold.Goldscore.External.HBond>
0.0000

> <Gold.Goldscore.Internal.Correction>
-5.5607

> <Gold.Goldscore.Internal.Vdw.Weighted>
-5.4418

> <Gold.Goldscore.Internal.Torsion.Weighted>
-2.9234

> <Gold.Goldscore.External.Vdw.Weighted>
68.5427

> <Gold.Goldscore.Internal.HBond.Weighted>
0.0000

> <Gold.Goldscore.External.HBond.Weighted>
0.0000

> <Gold.Goldscore.Internal.Correction.Weighted>
-5.5607

> <Gold.Protein.RotatedTorsions>
[ 3781 1176 1175 1172 ] final -121.20 input   60.00 | X-H torsion
[ 3847 1247 1246 1244 ] final  102.87 input   60.00 | X-H torsion
[ 4507 1931 1930 1928 ] final  101.90 input   60.00 | X-H torsion
[ 3677 1070 1069 1066 ] final -108.58 input   60.00 | X-H torsion
[ 3525  925  924  922 ] final   46.36 input   59.99 | X-H torsion
[ 4531 1957 1955 1953 ] final -140.64 input   60.00 | X-H torsion

> <Gold.Protein.ActiveResidues>
 PHE267  PRO268  MET310  ASP335  TRP336  MET339  TYR343  THR360  PRO361  ILE363 
 PRO371  SER374  ILE375  ASN378  PHE381  TYR383  GLN384  PHE387  LEU408  LEU417 
 MET419  LEU428  TYR466  MET469  ASN472  ASP496  VAL498  LEU499  MET503  HIS524 
 TRP525 

> <Gold.Protein.RotatedAtoms>
   -3.0090  -29.7670  -30.8610 H   0  0  0  0  0  0  0  0  0  0  0  0  # atno 3525 bound_to 925 
  -11.6130  -23.6888  -31.4397 H   0  0  0  0  0  0  0  0  0  0  0  0  # atno 3677 bound_to 1070
   -9.4562  -36.3154  -33.7371 H   0  0  0  0  0  0  0  0  0  0  0  0  # atno 3781 bound_to 1176
  -14.3819  -28.5323  -37.6471 H   0  0  0  0  0  0  0  0  0  0  0  0  # atno 3847 bound_to 1247
  -12.4348  -24.1131  -39.1231 H   0  0  0  0  0  0  0  0  0  0  0  0  # atno 4507 bound_to 1931
   -1.2607  -33.1801  -37.0042 H   0  0  0  0  0  0  0  0  0  0  0  0  # atno 4531 bound_to 1957
   -9.8563  -37.0932  -32.3649 LP  0  0  0  0  0  0  0  0  0  0  0  0  # atno 5205 bound_to 1176
  -10.8023  -37.2284  -33.6890 LP  0  0  0  0  0  0  0  0  0  0  0  0  # atno 5206 bound_to 1176
  -15.8984  -28.5109  -37.0574 LP  0  0  0  0  0  0  0  0  0  0  0  0  # atno 5215 bound_to 1247
  -15.2898  -27.1907  -37.8013 LP  0  0  0  0  0  0  0  0  0  0  0  0  # atno 5216 bound_to 1247
  -13.4388  -25.3799  -39.3103 LP  0  0  0  0  0  0  0  0  0  0  0  0  # atno 5217 bound_to 1931
  -13.3257  -24.2444  -40.4784 LP  0  0  0  0  0  0  0  0  0  0  0  0  # atno 5218 bound_to 1931
  -11.4311  -22.2456  -30.7101 LP  0  0  0  0  0  0  0  0  0  0  0  0  # atno 5224 bound_to 1070
  -12.8124  -23.0943  -30.5144 LP  0  0  0  0  0  0  0  0  0  0  0  0  # atno 5225 bound_to 1070

$$$$
IA_32|SeH_inactivess_minimized|sdf|118|dock7
  -GOLD-   4172121173D 1   1.00000     0.00000

 45 45  0  0  0  0  0  0  0  0  1 V2000
   -4.9062  -31.1617  -35.1375 C   0  0  0  0  0  0  0  0  0  0  0  0
   -5.5809  -29.9516  -34.9761 C   0  0  0  0  0  0  0  0  0  0  0  0
   -5.5975  -32.2935  -35.5700 C   0  0  0  0  0  0  0  0  0  0  0  0
   -7.6385  -31.0051  -35.6788 C   0  0  0  0  0  0  0  0  0  0  0  0
   -6.9470  -29.8733  -35.2467 C   0  0  0  0  0  0  0  0  0  0  0  0
   -6.9637  -32.2152  -35.8406 C   0  0  0  0  0  0  0  0  0  0  0  0
   -8.7849  -28.2115  -35.7401 C   0  0  0  0  0  0  0  0  0  0  0  0
  -13.5288  -25.9894  -36.2285 C   0  0  0  0  0  0  0  0  0  0  0  0
  -20.5937  -25.2639  -38.0434 C   0  0  0  0  0  0  0  0  0  0  0  0
  -19.4457  -24.9359  -37.1019 C   0  0  0  0  0  0  0  0  0  0  0  0
  -18.0930  -25.2681  -37.7312 C   0  0  0  0  0  0  0  0  0  0  0  0
  -16.9430  -24.9630  -36.7713 C   0  0  0  0  0  0  0  0  0  0  0  0
  -15.5917  -25.2432  -37.4179 C   0  0  0  0  0  0  0  0  0  0  0  0
  -10.2979  -26.2186  -35.7893 C   0  0  0  0  0  0  0  0  0  0  0  0
  -11.4840  -26.3178  -34.8447 C   0  0  0  0  0  0  0  0  0  0  0  0
   -7.6305  -28.6460  -35.0821 N   0  0  0  0  0  0  0  0  0  0  0  0
   -9.1505  -26.9324  -35.2965 N   0  0  0  0  0  0  0  0  0  0  0  0
  -14.5104  -25.0326  -36.4946 N   0  0  0  0  0  0  0  0  0  0  0  0
  -12.6034  -25.5256  -35.2970 N   0  0  0  0  0  0  0  0  0  0  0  0
   -9.4187  -28.8304  -36.5913 O   0  0  0  0  0  0  0  0  0  0  0  0
  -13.4871  -27.1018  -36.7522 O   0  0  0  0  0  0  0  0  0  0  0  0
   -7.8163  -33.6121  -36.3731 Cl  0  0  0  0  0  0  0  0  0  0  0  0
   -3.8422  -31.2228  -34.9269 H   0  0  0  0  0  0  0  0  0  0  0  0
   -5.0320  -29.0763  -34.6376 H   0  0  0  0  0  0  0  0  0  0  0  0
   -5.0583  -33.2295  -35.6907 H   0  0  0  0  0  0  0  0  0  0  0  0
   -8.7042  -30.9404  -35.8884 H   0  0  0  0  0  0  0  0  0  0  0  0
  -21.5497  -24.9941  -37.5838 H   0  0  0  0  0  0  0  0  0  0  0  0
  -20.5005  -24.7108  -38.9834 H   0  0  0  0  0  0  0  0  0  0  0  0
  -20.6180  -26.3336  -38.2746 H   0  0  0  0  0  0  0  0  0  0  0  0
  -19.5721  -25.5004  -36.1707 H   0  0  0  0  0  0  0  0  0  0  0  0
  -19.4853  -23.8711  -36.8439 H   0  0  0  0  0  0  0  0  0  0  0  0
  -17.9649  -24.6889  -38.6538 H   0  0  0  0  0  0  0  0  0  0  0  0
  -18.0678  -26.3286  -38.0096 H   0  0  0  0  0  0  0  0  0  0  0  0
  -17.0477  -25.5674  -35.8616 H   0  0  0  0  0  0  0  0  0  0  0  0
  -16.9906  -23.9128  -36.4571 H   0  0  0  0  0  0  0  0  0  0  0  0
  -15.4216  -24.5840  -38.2750 H   0  0  0  0  0  0  0  0  0  0  0  0
  -15.5316  -26.2810  -37.7609 H   0  0  0  0  0  0  0  0  0  0  0  0
   -9.9949  -25.1779  -35.9421 H   0  0  0  0  0  0  0  0  0  0  0  0
  -10.5534  -26.6533  -36.7605 H   0  0  0  0  0  0  0  0  0  0  0  0
  -11.8297  -27.3539  -34.7784 H   0  0  0  0  0  0  0  0  0  0  0  0
  -11.2227  -25.9739  -33.8388 H   0  0  0  0  0  0  0  0  0  0  0  0
   -7.2341  -28.0013  -34.4028 H   0  0  0  0  0  0  0  0  0  0  0  0
   -8.5728  -26.4849  -34.5873 H   0  0  0  0  0  0  0  0  0  0  0  0
  -14.4574  -24.1388  -36.0089 H   0  0  0  0  0  0  0  0  0  0  0  0
  -12.6913  -24.5747  -34.9522 H   0  0  0  0  0  0  0  0  0  0  0  0
  1  2  2  0  0  0  0
  1  3  1  0  0  0  0
  2  5  1  0  0  0  0
  3  6  2  0  0  0  0
  4  5  2  0  0  0  0
  4  6  1  0  0  0  0
  5 16  1  0  0  0  0
  6 22  1  0  0  0  0
  7 16  1  0  0  0  0
  7 17  1  0  0  0  0
  7 20  2  0  0  0  0
  8 18  1  0  0  0  0
  8 19  1  0  0  0  0
  8 21  2  0  0  0  0
  9 10  1  0  0  0  0
 10 11  1  0  0  0  0
 11 12  1  0  0  0  0
 12 13  1  0  0  0  0
 13 18  1  0  0  0  0
 14 15  1  0  0  0  0
 14 17  1  0  0  0  0
 15 19  1  0  0  0  0
  1 23  1  0  0  0  0
  2 24  1  0  0  0  0
  3 25  1  0  0  0  0
  4 26  1  0  0  0  0
  9 27  1  0  0  0  0
  9 28  1  0  0  0  0
  9 29  1  0  0  0  0
 10 30  1  0  0  0  0
 10 31  1  0  0  0  0
 11 32  1  0  0  0  0
 11 33  1  0  0  0  0
 12 34  1  0  0  0  0
 12 35  1  0  0  0  0
 13 36  1  0  0  0  0
 13 37  1  0  0  0  0
 14 38  1  0  0  0  0
 14 39  1  0  0  0  0
 15 40  1  0  0  0  0
 15 41  1  0  0  0  0
 16 42  1  0  0  0  0
 17 43  1  0  0  0  0
 18 44  1  0  0  0  0
 19 45  1  0  0  0  0
M  END
> <Name>
IA_32

> <SourceTag>
IA_32

> <Gold.Version>
5.2

> <Gold.Id.Protein>
6HGV|6HGV_protein|mol2

> <Gold.Goldscore.Fitness>
70.9111

> <Gold.Goldscore.Internal.Vdw>
-3.4201

> <Gold.Goldscore.Internal.Torsion>
-3.1487

> <Gold.Goldscore.External.Vdw>
48.3688

> <Gold.Goldscore.Internal.HBond>
0.0000

> <Gold.Goldscore.External.HBond>
5.2879

> <Gold.Goldscore.Internal.Correction>
-5.6849

> <Gold.Goldscore.Hbonds>
donor molecule, donor type, donor heavy atom, donor atom, acceptor molecule, acceptor atom, score
      L1  H    18    44       P1   853  0.79
      L1  H    19    45       P1   853  0.09

> <Gold.Goldscore.Internal.Vdw.Weighted>
-3.4201

> <Gold.Goldscore.Internal.Torsion.Weighted>
-3.1487

> <Gold.Goldscore.External.Vdw.Weighted>
66.5071

> <Gold.Goldscore.Internal.HBond.Weighted>
0.0000

> <Gold.Goldscore.External.HBond.Weighted>
5.2879

> <Gold.Goldscore.Internal.Correction.Weighted>
-5.6849

> <Gold.Protein.RotatedTorsions>
[ 3781 1176 1175 1172 ] final -167.44 input   60.00 | X-H torsion
[ 3847 1247 1246 1244 ] final   -5.16 input   60.00 | X-H torsion
[ 4507 1931 1930 1928 ] final   51.70 input   60.00 | X-H torsion
[ 3677 1070 1069 1066 ] final  -86.38 input   60.00 | X-H torsion
[ 3525  925  924  922 ] final   56.51 input   59.99 | X-H torsion
[ 4531 1957 1955 1953 ] final  -39.76 input   60.00 | X-H torsion

> <Gold.Protein.ActiveResidues>
 PHE267  PRO268  MET310  ASP335  TRP336  MET339  TYR343  THR360  PRO361  ILE363 
 PRO371  SER374  ILE375  ASN378  PHE381  TYR383  GLN384  PHE387  LEU408  LEU417 
 MET419  LEU428  TYR466  MET469  ASN472  ASP496  VAL498  LEU499  MET503  HIS524 
 TRP525 

> <Gold.Protein.RotatedAtoms>
   -2.8571  -29.8323  -30.8707 H   0  0  0  0  0  0  0  0  0  0  0  0  # atno 3525 bound_to 925 
  -11.9374  -23.8225  -31.3563 H   0  0  0  0  0  0  0  0  0  0  0  0  # atno 3677 bound_to 1070
   -9.2433  -36.4331  -33.0434 H   0  0  0  0  0  0  0  0  0  0  0  0  # atno 3781 bound_to 1176
  -15.7701  -28.6592  -37.0537 H   0  0  0  0  0  0  0  0  0  0  0  0  # atno 3847 bound_to 1247
  -12.7109  -24.7808  -38.7935 H   0  0  0  0  0  0  0  0  0  0  0  0  # atno 4507 bound_to 1931
   -2.3025  -32.2040  -36.7893 H   0  0  0  0  0  0  0  0  0  0  0  0  # atno 4531 bound_to 1957
  -10.4745  -37.4097  -32.6211 LP  0  0  0  0  0  0  0  0  0  0  0  0  # atno 5205 bound_to 1176
  -10.3985  -36.7933  -34.1314 LP  0  0  0  0  0  0  0  0  0  0  0  0  # atno 5206 bound_to 1176
  -15.4700  -27.2072  -37.7243 LP  0  0  0  0  0  0  0  0  0  0  0  0  # atno 5215 bound_to 1247
  -14.3202  -28.3667  -37.7320 LP  0  0  0  0  0  0  0  0  0  0  0  0  # atno 5216 bound_to 1247
  -13.7008  -25.1515  -40.0307 LP  0  0  0  0  0  0  0  0  0  0  0  0  # atno 5217 bound_to 1931
  -12.7856  -23.8004  -40.0901 LP  0  0  0  0  0  0  0  0  0  0  0  0  # atno 5218 bound_to 1931
  -11.2076  -22.4329  -30.9266 LP  0  0  0  0  0  0  0  0  0  0  0  0  # atno 5224 bound_to 1070
  -12.7091  -22.7724  -30.3818 LP  0  0  0  0  0  0  0  0  0  0  0  0  # atno 5225 bound_to 1070

$$$$
IA_110.cdx|SeH_inactivess_minimized|sdf|13|dock1
  -GOLD-   4172118493D 1   1.00000     0.00000

 38 38  0  0  0  0  0  0  0  0  1 V2000
  -13.8717  -25.4428  -37.4309 C   0  0  0  0  0  0  0  0  0  0  0  0
  -11.2898  -26.6219  -33.6421 C   0  0  0  0  0  0  0  0  0  0  0  0
  -11.1118  -25.1548  -34.0242 C   0  0  0  0  0  0  0  0  0  0  0  0
  -12.2159  -27.3541  -34.6095 C   0  0  0  0  0  0  0  0  0  0  0  0
  -10.6522  -25.0029  -35.4749 C   0  0  0  0  0  0  0  0  0  0  0  0
  -11.7534  -27.1973  -36.0588 C   0  0  0  0  0  0  0  0  0  0  0  0
  -11.5674  -25.7302  -36.4688 C   0  0  0  0  0  0  0  0  0  0  0  0
  -17.1212  -23.7183  -41.5492 C   0  0  0  0  0  0  0  0  0  0  0  0
  -18.5154  -23.5455  -39.6001 C   0  0  0  0  0  0  0  0  0  0  0  0
  -16.1897  -24.8158  -38.0925 C   0  0  0  0  0  0  0  0  0  0  0  0
  -16.1644  -23.9794  -39.3608 C   0  0  0  0  0  0  0  0  0  0  0  0
  -12.8659  -25.0574  -36.5482 N   0  0  0  0  0  0  0  0  0  0  0  0
  -14.9984  -24.6352  -37.2969 N   0  0  0  0  0  0  0  0  0  0  0  0
  -17.3292  -24.1995  -40.1745 N   0  0  0  0  0  0  0  0  0  0  0  0
  -13.7789  -26.3764  -38.2267 O   0  0  0  0  0  0  0  0  0  0  0  0
  -10.3119  -27.1184  -33.6209 H   0  0  0  0  0  0  0  0  0  0  0  0
  -11.7005  -26.6861  -32.6258 H   0  0  0  0  0  0  0  0  0  0  0  0
  -12.0560  -24.6189  -33.8798 H   0  0  0  0  0  0  0  0  0  0  0  0
  -10.3742  -24.6906  -33.3586 H   0  0  0  0  0  0  0  0  0  0  0  0
  -12.2468  -28.4192  -34.3507 H   0  0  0  0  0  0  0  0  0  0  0  0
  -13.2362  -26.9694  -34.5056 H   0  0  0  0  0  0  0  0  0  0  0  0
  -10.6017  -23.9300  -35.7308 H   0  0  0  0  0  0  0  0  0  0  0  0
   -9.6199  -25.3793  -35.5712 H   0  0  0  0  0  0  0  0  0  0  0  0
  -10.8090  -27.7488  -36.2014 H   0  0  0  0  0  0  0  0  0  0  0  0
  -12.4843  -27.6821  -36.7293 H   0  0  0  0  0  0  0  0  0  0  0  0
  -11.1403  -25.6790  -37.4671 H   0  0  0  0  0  0  0  0  0  0  0  0
  -16.9311  -22.6419  -41.5457 H   0  0  0  0  0  0  0  0  0  0  0  0
  -18.0076  -23.9172  -42.1575 H   0  0  0  0  0  0  0  0  0  0  0  0
  -16.2647  -24.2254  -42.0016 H   0  0  0  0  0  0  0  0  0  0  0  0
  -19.3454  -23.5818  -40.3104 H   0  0  0  0  0  0  0  0  0  0  0  0
  -18.2956  -22.4997  -39.3688 H   0  0  0  0  0  0  0  0  0  0  0  0
  -18.8175  -24.0520  -38.6795 H   0  0  0  0  0  0  0  0  0  0  0  0
  -16.2726  -25.8834  -38.3198 H   0  0  0  0  0  0  0  0  0  0  0  0
  -17.0402  -24.5255  -37.4678 H   0  0  0  0  0  0  0  0  0  0  0  0
  -16.1431  -22.9140  -39.1117 H   0  0  0  0  0  0  0  0  0  0  0  0
  -15.2868  -24.2103  -39.9733 H   0  0  0  0  0  0  0  0  0  0  0  0
  -13.0414  -24.2716  -35.9292 H   0  0  0  0  0  0  0  0  0  0  0  0
  -15.0021  -23.9164  -36.5800 H   0  0  0  0  0  0  0  0  0  0  0  0
  1 12  1  0  0  0  0
  1 13  1  0  0  0  0
  1 15  2  0  0  0  0
  2  3  1  0  0  0  0
  2  4  1  0  0  0  0
  3  5  1  0  0  0  0
  4  6  1  0  0  0  0
  5  7  1  0  0  0  0
  6  7  1  0  0  0  0
  7 12  1  0  0  0  0
  8 14  1  0  0  0  0
  9 14  1  0  0  0  0
 10 11  1  0  0  0  0
 10 13  1  0  0  0  0
 11 14  1  0  0  0  0
  2 16  1  0  0  0  0
  2 17  1  0  0  0  0
  3 18  1  0  0  0  0
  3 19  1  0  0  0  0
  4 20  1  0  0  0  0
  4 21  1  0  0  0  0
  5 22  1  0  0  0  0
  5 23  1  0  0  0  0
  6 24  1  0  0  0  0
  6 25  1  0  0  0  0
  7 26  1  0  0  0  0
  8 27  1  0  0  0  0
  8 28  1  0  0  0  0
  8 29  1  0  0  0  0
  9 30  1  0  0  0  0
  9 31  1  0  0  0  0
  9 32  1  0  0  0  0
 10 33  1  0  0  0  0
 10 34  1  0  0  0  0
 11 35  1  0  0  0  0
 11 36  1  0  0  0  0
 12 37  1  0  0  0  0
 13 38  1  0  0  0  0
M  END
> <Name>
IA_110.cdx

> <SourceTag>
IA_110

> <Gold.Version>
5.2

> <Gold.Id.Protein>
6HGV|6HGV_protein|mol2

> <Gold.Goldscore.Fitness>
52.0448

> <Gold.Goldscore.Internal.Vdw>
-7.3294

> <Gold.Goldscore.Internal.Torsion>
-1.5770

> <Gold.Goldscore.External.Vdw>
34.4402

> <Gold.Goldscore.Internal.HBond>
0.0000

> <Gold.Goldscore.External.HBond>
6.0238

> <Gold.Goldscore.Internal.Correction>
-7.5721

> <Gold.Goldscore.Hbonds>
donor molecule, donor type, donor heavy atom, donor atom, acceptor molecule, acceptor atom, score
      P1  H  1247  3847       L1    15  0.13
      L1  H    12    37       P1   853  0.61
      L1  H    13    38       P1   853  0.35

> <Gold.Goldscore.Internal.Vdw.Weighted>
-7.3294

> <Gold.Goldscore.Internal.Torsion.Weighted>
-1.5770

> <Gold.Goldscore.External.Vdw.Weighted>
47.3553

> <Gold.Goldscore.Internal.HBond.Weighted>
0.0000

> <Gold.Goldscore.External.HBond.Weighted>
6.0238

> <Gold.Goldscore.Internal.Correction.Weighted>
-7.5721

> <Gold.Protein.RotatedTorsions>
[ 3781 1176 1175 1172 ] final  -91.65 input   60.00 | X-H torsion
[ 3847 1247 1246 1244 ] final  155.34 input   60.00 | X-H torsion
[ 4507 1931 1930 1928 ] final  113.92 input   60.00 | X-H torsion
[ 3677 1070 1069 1066 ] final  -67.51 input   60.00 | X-H torsion
[ 3525  925  924  922 ] final   90.35 input   59.99 | X-H torsion
[ 4531 1957 1955 1953 ] final   11.84 input   60.00 | X-H torsion

> <Gold.Protein.ActiveResidues>
 PHE267  PRO268  MET310  ASP335  TRP336  MET339  TYR343  THR360  PRO361  ILE363 
 PRO371  SER374  ILE375  ASN378  PHE381  TYR383  GLN384  PHE387  LEU408  LEU417 
 MET419  LEU428  TYR466  MET469  ASN472  ASP496  VAL498  LEU499  MET503  HIS524 
 TRP525 

> <Gold.Protein.RotatedAtoms>
   -2.3896  -30.0520  -30.6974 H   0  0  0  0  0  0  0  0  0  0  0  0  # atno 3525 bound_to 925 
  -12.2165  -23.8419  -31.2301 H   0  0  0  0  0  0  0  0  0  0  0  0  # atno 3677 bound_to 1070
   -9.7992  -36.4269  -34.0501 H   0  0  0  0  0  0  0  0  0  0  0  0  # atno 3781 bound_to 1176
  -14.4205  -27.7552  -37.9293 H   0  0  0  0  0  0  0  0  0  0  0  0  # atno 3847 bound_to 1247
  -12.4351  -23.9877  -39.2738 H   0  0  0  0  0  0  0  0  0  0  0  0  # atno 4507 bound_to 1931
   -2.9701  -32.6561  -36.6702 H   0  0  0  0  0  0  0  0  0  0  0  0  # atno 4531 bound_to 1957
   -9.4957  -36.8034  -32.4964 LP  0  0  0  0  0  0  0  0  0  0  0  0  # atno 5205 bound_to 1176
  -10.8175  -37.4059  -33.2423 LP  0  0  0  0  0  0  0  0  0  0  0  0  # atno 5206 bound_to 1176
  -15.2020  -28.9574  -37.1599 LP  0  0  0  0  0  0  0  0  0  0  0  0  # atno 5215 bound_to 1247
  -15.9473  -27.5269  -37.4146 LP  0  0  0  0  0  0  0  0  0  0  0  0  # atno 5216 bound_to 1247
  -13.3231  -25.3460  -39.1539 LP  0  0  0  0  0  0  0  0  0  0  0  0  # atno 5217 bound_to 1931
  -13.4411  -24.4046  -40.4830 LP  0  0  0  0  0  0  0  0  0  0  0  0  # atno 5218 bound_to 1931
  -11.1037  -22.6609  -31.1076 LP  0  0  0  0  0  0  0  0  0  0  0  0  # atno 5224 bound_to 1070
  -12.5320  -22.5248  -30.3279 LP  0  0  0  0  0  0  0  0  0  0  0  0  # atno 5225 bound_to 1070

$$$$
IA_142.cdx|SeH_inactivess_minimized|sdf|45|dock3
  -GOLD-   4172119363D 1   1.00000     0.00000

 27 27  0  0  0  0  0  0  0  0  1 V2000
   -9.3724  -26.0390  -34.3767 C   0  0  0  0  0  0  0  0  0  0  0  0
  -10.3565  -25.1599  -33.9249 C   0  0  0  0  0  0  0  0  0  0  0  0
   -9.6248  -26.8654  -35.4717 C   0  0  0  0  0  0  0  0  0  0  0  0
  -11.5931  -25.1072  -34.5680 C   0  0  0  0  0  0  0  0  0  0  0  0
  -10.8614  -26.8127  -36.1148 C   0  0  0  0  0  0  0  0  0  0  0  0
  -11.8456  -25.9337  -35.6630 C   0  0  0  0  0  0  0  0  0  0  0  0
  -16.6310  -25.7537  -35.7578 C   0  0  0  0  0  0  0  0  0  0  0  0
  -18.9916  -25.1728  -36.3209 C   0  0  0  0  0  0  0  0  0  0  0  0
  -13.1833  -25.8773  -36.3590 C   0  0  0  0  0  0  0  0  0  0  0  0
  -14.2898  -26.5853  -35.5809 C   0  0  0  0  0  0  0  0  0  0  0  0
  -17.7460  -25.8552  -36.5853 N   0  0  0  0  0  0  0  0  0  0  0  0
  -15.5693  -26.5112  -36.2460 N   0  0  0  0  0  0  0  0  0  0  0  0
  -16.5875  -25.0827  -34.7274 O   0  0  0  0  0  0  0  0  0  0  0  0
   -8.4090  -26.0789  -33.8767 H   0  0  0  0  0  0  0  0  0  0  0  0
  -10.1597  -24.5155  -33.0730 H   0  0  0  0  0  0  0  0  0  0  0  0
   -8.8584  -27.5492  -35.8244 H   0  0  0  0  0  0  0  0  0  0  0  0
  -12.3541  -24.4192  -34.2090 H   0  0  0  0  0  0  0  0  0  0  0  0
  -11.0492  -27.4604  -36.9672 H   0  0  0  0  0  0  0  0  0  0  0  0
  -18.9250  -24.1308  -36.6443 H   0  0  0  0  0  0  0  0  0  0  0  0
  -19.2152  -25.1955  -35.2509 H   0  0  0  0  0  0  0  0  0  0  0  0
  -19.8099  -25.6571  -36.8603 H   0  0  0  0  0  0  0  0  0  0  0  0
  -13.0810  -26.3422  -37.3478 H   0  0  0  0  0  0  0  0  0  0  0  0
  -13.4614  -24.8320  -36.5444 H   0  0  0  0  0  0  0  0  0  0  0  0
  -14.0500  -27.6481  -35.4753 H   0  0  0  0  0  0  0  0  0  0  0  0
  -14.4135  -26.1619  -34.5788 H   0  0  0  0  0  0  0  0  0  0  0  0
  -17.6805  -26.4368  -37.4149 H   0  0  0  0  0  0  0  0  0  0  0  0
  -15.7116  -27.0712  -37.0807 H   0  0  0  0  0  0  0  0  0  0  0  0
  1  2  2  0  0  0  0
  1  3  1  0  0  0  0
  2  4  1  0  0  0  0
  3  5  2  0  0  0  0
  4  6  2  0  0  0  0
  5  6  1  0  0  0  0
  6  9  1  0  0  0  0
  7 11  1  0  0  0  0
  7 12  1  0  0  0  0
  7 13  2  0  0  0  0
  8 11  1  0  0  0  0
  9 10  1  0  0  0  0
 10 12  1  0  0  0  0
  1 14  1  0  0  0  0
  2 15  1  0  0  0  0
  3 16  1  0  0  0  0
  4 17  1  0  0  0  0
  5 18  1  0  0  0  0
  8 19  1  0  0  0  0
  8 20  1  0  0  0  0
  8 21  1  0  0  0  0
  9 22  1  0  0  0  0
  9 23  1  0  0  0  0
 10 24  1  0  0  0  0
 10 25  1  0  0  0  0
 11 26  1  0  0  0  0
 12 27  1  0  0  0  0
M  END
> <Name>
IA_142.cdx

> <SourceTag>
IA_142

> <Gold.Version>
5.2

> <Gold.Id.Protein>
6HGV|6HGV_protein|mol2

> <Gold.Goldscore.Fitness>
46.5274

> <Gold.Goldscore.Internal.Vdw>
-0.8869

> <Gold.Goldscore.Internal.Torsion>
-1.6034

> <Gold.Goldscore.External.Vdw>
34.9644

> <Gold.Goldscore.Internal.HBond>
0.0000

> <Gold.Goldscore.External.HBond>
0.4286

> <Gold.Goldscore.Internal.Correction>
-0.5130

> <Gold.Goldscore.Hbonds>
donor molecule, donor type, donor heavy atom, donor atom, acceptor molecule, acceptor atom, score
      L1  H    12    27       P1  1247  0.21

> <Gold.Goldscore.Internal.Vdw.Weighted>
-0.8869

> <Gold.Goldscore.Internal.Torsion.Weighted>
-1.6034

> <Gold.Goldscore.External.Vdw.Weighted>
48.0761

> <Gold.Goldscore.Internal.HBond.Weighted>
0.0000

> <Gold.Goldscore.External.HBond.Weighted>
0.4286

> <Gold.Goldscore.Internal.Correction.Weighted>
-0.5130

> <Gold.Protein.RotatedTorsions>
[ 3781 1176 1175 1172 ] final   65.27 input   60.00 | X-H torsion
[ 3847 1247 1246 1244 ] final   79.42 input   60.00 | X-H torsion
[ 4507 1931 1930 1928 ] final  -42.35 input   60.00 | X-H torsion
[ 3677 1070 1069 1066 ] final -106.09 input   60.00 | X-H torsion
[ 3525  925  924  922 ] final   66.66 input   59.99 | X-H torsion
[ 4531 1957 1955 1953 ] final  103.50 input   60.00 | X-H torsion

> <Gold.Protein.ActiveResidues>
 PHE267  PRO268  MET310  ASP335  TRP336  MET339  TYR343  THR360  PRO361  ILE363 
 PRO371  SER374  ILE375  ASN378  PHE381  TYR383  GLN384  PHE387  LEU408  LEU417 
 MET419  LEU428  TYR466  MET469  ASN472  ASP496  VAL498  LEU499  MET503  HIS524 
 TRP525 

> <Gold.Protein.RotatedAtoms>
   -2.7070  -29.8996  -30.8512 H   0  0  0  0  0  0  0  0  0  0  0  0  # atno 3525 bound_to 925 
  -11.6478  -23.7094  -31.4342 H   0  0  0  0  0  0  0  0  0  0  0  0  # atno 3677 bound_to 1070
  -10.5510  -37.4302  -32.7108 H   0  0  0  0  0  0  0  0  0  0  0  0  # atno 3781 bound_to 1176
  -14.5873  -28.7961  -37.4656 H   0  0  0  0  0  0  0  0  0  0  0  0  # atno 3847 bound_to 1247
  -13.6121  -25.3372  -39.6623 H   0  0  0  0  0  0  0  0  0  0  0  0  # atno 4507 bound_to 1931
   -2.6254  -33.9513  -36.7581 H   0  0  0  0  0  0  0  0  0  0  0  0  # atno 4531 bound_to 1957
  -10.3051  -36.7221  -34.1551 LP  0  0  0  0  0  0  0  0  0  0  0  0  # atno 5205 bound_to 1176
   -9.2510  -36.4769  -32.9323 LP  0  0  0  0  0  0  0  0  0  0  0  0  # atno 5206 bound_to 1176
  -16.0498  -28.1665  -37.1297 LP  0  0  0  0  0  0  0  0  0  0  0  0  # atno 5215 bound_to 1247
  -14.9316  -27.2695  -37.9118 LP  0  0  0  0  0  0  0  0  0  0  0  0  # atno 5216 bound_to 1247
  -13.0641  -23.9723  -40.3586 LP  0  0  0  0  0  0  0  0  0  0  0  0  # atno 5217 bound_to 1931
  -12.5147  -24.4192  -38.8871 LP  0  0  0  0  0  0  0  0  0  0  0  0  # atno 5218 bound_to 1931
  -11.4014  -22.2614  -30.7337 LP  0  0  0  0  0  0  0  0  0  0  0  0  # atno 5224 bound_to 1070
  -12.8070  -23.0579  -30.4963 LP  0  0  0  0  0  0  0  0  0  0  0  0  # atno 5225 bound_to 1070

$$$$
IA_158.cdx|SeH_inactivess_minimized|sdf|59|dock1
  -GOLD-   4172119533D 1   1.00000     0.00000

 23 22  0  0  0  0  0  0  0  0  1 V2000
  -11.8448  -24.9841  -36.3837 C   0  0  0  0  0  0  0  0  0  0  0  0
  -15.2721  -25.4949  -36.7538 C   0  0  0  0  0  0  0  0  0  0  0  0
  -11.2147  -27.2529  -35.1332 C   0  0  0  0  0  0  0  0  0  0  0  0
   -9.1523  -26.0074  -34.4182 C   0  0  0  0  0  0  0  0  0  0  0  0
  -11.4062  -25.2918  -33.5673 C   0  0  0  0  0  0  0  0  0  0  0  0
  -13.8869  -25.8590  -36.2602 C   0  0  0  0  0  0  0  0  0  0  0  0
  -10.6403  -25.8903  -34.7467 C   0  0  0  0  0  0  0  0  0  0  0  0
  -12.9065  -24.9681  -36.8855 N   0  0  0  0  0  0  0  0  0  0  0  0
  -10.7781  -24.9857  -35.8968 N   0  0  0  0  0  0  0  0  0  0  0  0
  -15.5083  -24.4567  -36.5017 H   0  0  0  0  0  0  0  0  0  0  0  0
  -15.3431  -25.6098  -37.8405 H   0  0  0  0  0  0  0  0  0  0  0  0
  -16.0314  -26.1407  -36.3002 H   0  0  0  0  0  0  0  0  0  0  0  0
  -11.1874  -27.3994  -36.2189 H   0  0  0  0  0  0  0  0  0  0  0  0
  -10.6508  -28.0684  -34.6671 H   0  0  0  0  0  0  0  0  0  0  0  0
  -12.2613  -27.3441  -34.8206 H   0  0  0  0  0  0  0  0  0  0  0  0
   -8.6084  -26.5145  -35.2235 H   0  0  0  0  0  0  0  0  0  0  0  0
   -8.9941  -26.5910  -33.5039 H   0  0  0  0  0  0  0  0  0  0  0  0
   -8.6984  -25.0211  -34.2725 H   0  0  0  0  0  0  0  0  0  0  0  0
  -10.8073  -24.5330  -33.0508 H   0  0  0  0  0  0  0  0  0  0  0  0
  -12.3380  -24.8197  -33.8974 H   0  0  0  0  0  0  0  0  0  0  0  0
  -11.6594  -26.0615  -32.8293 H   0  0  0  0  0  0  0  0  0  0  0  0
  -13.6525  -26.8965  -36.5173 H   0  0  0  0  0  0  0  0  0  0  0  0
  -13.8316  -25.7549  -35.1722 H   0  0  0  0  0  0  0  0  0  0  0  0
  1  8  2  0  0  0  0
  1  9  2  0  0  0  0
  2  6  1  0  0  0  0
  3  7  1  0  0  0  0
  4  7  1  0  0  0  0
  5  7  1  0  0  0  0
  6  8  1  0  0  0  0
  7  9  1  0  0  0  0
  2 10  1  0  0  0  0
  2 11  1  0  0  0  0
  2 12  1  0  0  0  0
  3 13  1  0  0  0  0
  3 14  1  0  0  0  0
  3 15  1  0  0  0  0
  4 16  1  0  0  0  0
  4 17  1  0  0  0  0
  4 18  1  0  0  0  0
  5 19  1  0  0  0  0
  5 20  1  0  0  0  0
  5 21  1  0  0  0  0
  6 22  1  0  0  0  0
  6 23  1  0  0  0  0
M  END
> <Name>
IA_158.cdx

> <SourceTag>
IA_158

> <Gold.Version>
5.2

> <Gold.Id.Protein>
6HGV|6HGV_protein|mol2

> <Gold.Goldscore.Fitness>
38.9224

> <Gold.Goldscore.Internal.Vdw>
-7.1063

> <Gold.Goldscore.Internal.Torsion>
-4.8560

> <Gold.Goldscore.External.Vdw>
27.3484

> <Gold.Goldscore.Internal.HBond>
0.0000

> <Gold.Goldscore.External.HBond>
1.7157

> <Gold.Goldscore.Internal.Correction>
-11.5649

> <Gold.Goldscore.Hbonds>
donor molecule, donor type, donor heavy atom, donor atom, acceptor molecule, acceptor atom, score
      P1  H  1931  4507       L1     8  0.86

> <Gold.Goldscore.Internal.Vdw.Weighted>
-7.1063

> <Gold.Goldscore.Internal.Torsion.Weighted>
-4.8560

> <Gold.Goldscore.External.Vdw.Weighted>
37.6041

> <Gold.Goldscore.Internal.HBond.Weighted>
0.0000

> <Gold.Goldscore.External.HBond.Weighted>
1.7157

> <Gold.Goldscore.Internal.Correction.Weighted>
-11.5649

> <Gold.Protein.RotatedTorsions>
[ 3781 1176 1175 1172 ] final   38.57 input   60.00 | X-H torsion
[ 3847 1247 1246 1244 ] final   60.93 input   60.00 | X-H torsion
[ 4507 1931 1930 1928 ] final   37.28 input   60.00 | X-H torsion
[ 3677 1070 1069 1066 ] final  -46.24 input   60.00 | X-H torsion
[ 3525  925  924  922 ] final -117.77 input   59.99 | X-H torsion
[ 4531 1957 1955 1953 ] final  172.09 input   60.00 | X-H torsion

> <Gold.Protein.ActiveResidues>
 PHE267  PRO268  MET310  ASP335  TRP336  MET339  TYR343  THR360  PRO361  ILE363 
 PRO371  SER374  ILE375  ASN378  PHE381  TYR383  GLN384  PHE387  LEU408  LEU417 
 MET419  LEU428  TYR466  MET469  ASN472  ASP496  VAL498  LEU499  MET503  HIS524 
 TRP525 

> <Gold.Protein.RotatedAtoms>
   -3.0555  -29.9158  -29.0130 H   0  0  0  0  0  0  0  0  0  0  0  0  # atno 3525 bound_to 925 
  -12.4955  -23.7571  -31.0447 H   0  0  0  0  0  0  0  0  0  0  0  0  # atno 3677 bound_to 1070
  -10.7676  -37.4346  -33.0849 H   0  0  0  0  0  0  0  0  0  0  0  0  # atno 3781 bound_to 1176
  -14.8216  -28.9222  -37.3254 H   0  0  0  0  0  0  0  0  0  0  0  0  # atno 3847 bound_to 1247
  -12.8527  -24.9673  -38.8115 H   0  0  0  0  0  0  0  0  0  0  0  0  # atno 4507 bound_to 1931
   -1.5933  -33.8512  -36.9526 H   0  0  0  0  0  0  0  0  0  0  0  0  # atno 4531 bound_to 1957
   -9.9380  -36.4908  -34.1188 LP  0  0  0  0  0  0  0  0  0  0  0  0  # atno 5205 bound_to 1176
   -9.3999  -36.7037  -32.5918 LP  0  0  0  0  0  0  0  0  0  0  0  0  # atno 5206 bound_to 1176
  -16.0693  -27.8817  -37.2310 LP  0  0  0  0  0  0  0  0  0  0  0  0  # atno 5215 bound_to 1247
  -14.6761  -27.4273  -37.9517 LP  0  0  0  0  0  0  0  0  0  0  0  0  # atno 5216 bound_to 1247
  -13.6917  -24.9924  -40.2056 LP  0  0  0  0  0  0  0  0  0  0  0  0  # atno 5217 bound_to 1931
  -12.6520  -23.7716  -39.8969 LP  0  0  0  0  0  0  0  0  0  0  0  0  # atno 5218 bound_to 1931
  -11.0959  -22.9616  -31.2826 LP  0  0  0  0  0  0  0  0  0  0  0  0  # atno 5224 bound_to 1070
  -12.2588  -22.3096  -30.3396 LP  0  0  0  0  0  0  0  0  0  0  0  0  # atno 5225 bound_to 1070

$$$$
IA_132.cdx|SeH_inactivess_minimized|sdf|34|dock8
  -GOLD-   4172119213D 1   1.00000     0.00000

 38 39  0  0  0  0  0  0  0  0  3 V2000
  -16.2246  -25.2140  -37.1291 C   0  0  0  0  0  0  0  0  0  0  0  0
  -15.6827  -23.2656  -38.4509 C   0  0  0  0  0  0  0  0  0  0  0  0
  -17.5576  -25.1133  -37.5270 C   0  0  0  0  0  0  0  0  0  0  0  0
  -17.0159  -23.1649  -38.8489 C   0  0  0  0  0  0  0  0  0  0  0  0
  -10.7287  -27.3255  -36.6660 C   0  0  0  0  0  0  0  0  0  0  0  0
   -9.9395  -25.6334  -35.1326 C   0  0  0  0  0  0  0  0  0  0  0  0
   -9.6919  -28.1696  -36.2680 C   0  0  0  0  0  0  0  0  0  0  0  0
   -8.9029  -26.4775  -34.7346 C   0  0  0  0  0  0  0  0  0  0  0  0
  -15.2871  -24.2901  -37.5910 C   0  0  0  0  0  0  0  0  0  0  0  0
  -10.8524  -26.0574  -36.0983 C   0  0  0  0  0  0  0  0  0  0  0  0
  -17.9533  -24.0888  -38.3869 C   0  0  0  0  0  0  0  0  0  0  0  0
   -8.7791  -27.7456  -35.3023 C   0  0  0  0  0  0  0  0  0  0  0  0
  -13.2199  -25.5508  -36.8452 C   0  0  0  0  0  0  0  0  0  0  0  0
  -20.3672  -24.0608  -37.8104 C   0  0  0  0  0  0  0  0  0  0  0  0
  -19.6374  -23.7956  -40.1864 C   0  0  0  0  0  0  0  0  0  0  0  0
  -13.9541  -24.3903  -37.1915 N   0  0  0  0  0  0  0  0  0  0  0  0
  -11.9040  -25.2012  -36.5021 N   0  0  0  0  0  0  0  0  0  0  0  0
  -19.3012  -23.9878  -38.7896 N   0  0  0  0  0  0  0  0  0  0  0  0
   -7.7238  -28.6050  -34.8971 N   0  3  0  0  0  0  0  0  0  0  0  0
   -6.7744  -28.1288  -34.2291 O   0  5  0  0  0  0  0  0  0  0  0  0
  -13.6735  -26.6907  -36.8471 O   0  0  0  0  0  0  0  0  0  0  0  0
   -7.7698  -29.8172  -35.2179 O   0  0  0  0  0  0  0  0  0  0  0  0
  -15.9275  -26.0165  -36.4583 H   0  0  0  0  0  0  0  0  0  0  0  0
  -14.9605  -22.5404  -38.8170 H   0  0  0  0  0  0  0  0  0  0  0  0
  -18.2802  -25.8383  -37.1610 H   0  0  0  0  0  0  0  0  0  0  0  0
  -17.3137  -22.3626  -39.5185 H   0  0  0  0  0  0  0  0  0  0  0  0
  -11.4343  -27.6663  -37.4193 H   0  0  0  0  0  0  0  0  0  0  0  0
  -10.0264  -24.6472  -34.6835 H   0  0  0  0  0  0  0  0  0  0  0  0
   -9.6070  -29.1555  -36.7185 H   0  0  0  0  0  0  0  0  0  0  0  0
   -8.1982  -26.1345  -33.9809 H   0  0  0  0  0  0  0  0  0  0  0  0
  -21.1986  -23.4182  -38.1115 H   0  0  0  0  0  0  0  0  0  0  0  0
  -20.0051  -23.7328  -36.8322 H   0  0  0  0  0  0  0  0  0  0  0  0
  -20.7304  -25.0884  -37.7230 H   0  0  0  0  0  0  0  0  0  0  0  0
  -20.0609  -22.7993  -40.3373 H   0  0  0  0  0  0  0  0  0  0  0  0
  -20.3706  -24.5416  -40.5047 H   0  0  0  0  0  0  0  0  0  0  0  0
  -18.7432  -23.8957  -40.8076 H   0  0  0  0  0  0  0  0  0  0  0  0
  -13.4372  -23.5060  -37.1421 H   0  0  0  0  0  0  0  0  0  0  0  0
  -11.6717  -24.2121  -36.5468 H   0  0  0  0  0  0  0  0  0  0  0  0
  1  3  1  0  0  0  0
  1  9  2  0  0  0  0
  2  4  2  0  0  0  0
  2  9  1  0  0  0  0
  3 11  2  0  0  0  0
  4 11  1  0  0  0  0
  5  7  1  0  0  0  0
  5 10  2  0  0  0  0
  6  8  2  0  0  0  0
  6 10  1  0  0  0  0
  7 12  2  0  0  0  0
  8 12  1  0  0  0  0
  9 16  1  0  0  0  0
 10 17  1  0  0  0  0
 11 18  1  0  0  0  0
 12 19  1  0  0  0  0
 13 16  1  0  0  0  0
 13 17  1  0  0  0  0
 13 21  2  0  0  0  0
 14 18  1  0  0  0  0
 15 18  1  0  0  0  0
 19 20  1  0  0  0  0
 19 22  2  0  0  0  0
  1 23  1  0  0  0  0
  2 24  1  0  0  0  0
  3 25  1  0  0  0  0
  4 26  1  0  0  0  0
  5 27  1  0  0  0  0
  6 28  1  0  0  0  0
  7 29  1  0  0  0  0
  8 30  1  0  0  0  0
 14 31  1  0  0  0  0
 14 32  1  0  0  0  0
 14 33  1  0  0  0  0
 15 34  1  0  0  0  0
 15 35  1  0  0  0  0
 15 36  1  0  0  0  0
 16 37  1  0  0  0  0
 17 38  1  0  0  0  0
M  CHG  1  19   1
M  CHG  1  20  -1
M  END
> <Name>
IA_132.cdx

> <SourceTag>
IA_132

> <Gold.Version>
5.2

> <Gold.Id.Protein>
6HGV|6HGV_protein|mol2

> <Gold.Goldscore.Fitness>
63.6463

> <Gold.Goldscore.Internal.Vdw>
-1.1508

> <Gold.Goldscore.Internal.Torsion>
-10.0653

> <Gold.Goldscore.External.Vdw>
44.3738

> <Gold.Goldscore.Internal.HBond>
0.0000

> <Gold.Goldscore.External.HBond>
3.2280

> <Gold.Goldscore.Internal.Correction>
-10.6204

> <Gold.Goldscore.Hbonds>
donor molecule, donor type, donor heavy atom, donor atom, acceptor molecule, acceptor atom, score
      P1  H  1247  3847       L1    21  0.07
      L1  H    16    37       P1   854  0.46
      L1  H    17    38       P1   854  0.06

> <Gold.Goldscore.Internal.Vdw.Weighted>
-1.1508

> <Gold.Goldscore.Internal.Torsion.Weighted>
-10.0653

> <Gold.Goldscore.External.Vdw.Weighted>
61.0140

> <Gold.Goldscore.Internal.HBond.Weighted>
0.0000

> <Gold.Goldscore.External.HBond.Weighted>
3.2280

> <Gold.Goldscore.Internal.Correction.Weighted>
-10.6204

> <Gold.Protein.RotatedTorsions>
[ 3781 1176 1175 1172 ] final -136.53 input   60.00 | X-H torsion
[ 3847 1247 1246 1244 ] final  159.40 input   60.00 | X-H torsion
[ 4507 1931 1930 1928 ] final  -54.63 input   60.00 | X-H torsion
[ 3677 1070 1069 1066 ] final -120.72 input   60.00 | X-H torsion
[ 3525  925  924  922 ] final  -56.04 input   59.99 | X-H torsion
[ 4531 1957 1955 1953 ] final   23.42 input   60.00 | X-H torsion

> <Gold.Protein.ActiveResidues>
 PHE267  PRO268  MET310  ASP335  TRP336  MET339  TYR343  THR360  PRO361  ILE363 
 PRO371  SER374  ILE375  ASN378  PHE381  TYR383  GLN384  PHE387  LEU408  LEU417 
 MET419  LEU428  TYR466  MET469  ASN472  ASP496  VAL498  LEU499  MET503  HIS524 
 TRP525 

> <Gold.Protein.RotatedAtoms>
   -3.7268  -29.5689  -29.6059 H   0  0  0  0  0  0  0  0  0  0  0  0  # atno 3525 bound_to 925 
  -11.4541  -23.5714  -31.4509 H   0  0  0  0  0  0  0  0  0  0  0  0  # atno 3677 bound_to 1070
   -9.3335  -36.3149  -33.5197 H   0  0  0  0  0  0  0  0  0  0  0  0  # atno 3781 bound_to 1176
  -14.4528  -27.6978  -37.9386 H   0  0  0  0  0  0  0  0  0  0  0  0  # atno 3847 bound_to 1247
  -13.6666  -25.2654  -39.8412 H   0  0  0  0  0  0  0  0  0  0  0  0  # atno 4507 bound_to 1931
   -3.0482  -32.8276  -36.6583 H   0  0  0  0  0  0  0  0  0  0  0  0  # atno 4531 bound_to 1957
  -10.0685  -37.2257  -32.3891 LP  0  0  0  0  0  0  0  0  0  0  0  0  # atno 5205 bound_to 1176
  -10.7137  -37.0964  -33.8837 LP  0  0  0  0  0  0  0  0  0  0  0  0  # atno 5206 bound_to 1176
  -15.1392  -28.9644  -37.1819 LP  0  0  0  0  0  0  0  0  0  0  0  0  # atno 5215 bound_to 1247
  -15.9776  -27.5776  -37.3833 LP  0  0  0  0  0  0  0  0  0  0  0  0  # atno 5216 bound_to 1247
  -12.9286  -23.8729  -40.2469 LP  0  0  0  0  0  0  0  0  0  0  0  0  # atno 5217 bound_to 1931
  -12.5953  -24.5910  -38.8186 LP  0  0  0  0  0  0  0  0  0  0  0  0  # atno 5218 bound_to 1931
  -11.5884  -22.1901  -30.6012 LP  0  0  0  0  0  0  0  0  0  0  0  0  # atno 5224 bound_to 1070
  -12.8151  -23.2680  -30.6120 LP  0  0  0  0  0  0  0  0  0  0  0  0  # atno 5225 bound_to 1070

$$$$
IA_155.cdx|SeH_inactivess_minimized|sdf|56|dock1
  -GOLD-   4172119503D 1   1.00000     0.00000

 17 16  0  0  0  0  0  0  0  0  1 V2000
  -11.6070  -24.6375  -36.0328 C   0  0  0  0  0  0  0  0  0  0  0  0
   -9.5318  -26.0862  -34.3866 C   0  0  0  0  0  0  0  0  0  0  0  0
  -14.2996  -26.0679  -35.7602 C   0  0  0  0  0  0  0  0  0  0  0  0
  -10.6333  -25.0912  -34.0841 C   0  0  0  0  0  0  0  0  0  0  0  0
  -12.9928  -26.3192  -36.4840 C   0  0  0  0  0  0  0  0  0  0  0  0
  -10.8322  -24.2281  -35.2509 N   0  0  0  0  0  0  0  0  0  0  0  0
  -12.3792  -25.0332  -36.8244 N   0  0  0  0  0  0  0  0  0  0  0  0
   -8.5643  -25.5793  -34.4512 H   0  0  0  0  0  0  0  0  0  0  0  0
   -9.4687  -26.8500  -33.6044 H   0  0  0  0  0  0  0  0  0  0  0  0
   -9.7168  -26.5976  -35.3373 H   0  0  0  0  0  0  0  0  0  0  0  0
  -14.7976  -27.0142  -35.5283 H   0  0  0  0  0  0  0  0  0  0  0  0
  -14.1300  -25.5294  -34.8218 H   0  0  0  0  0  0  0  0  0  0  0  0
  -14.9765  -25.4636  -36.3734 H   0  0  0  0  0  0  0  0  0  0  0  0
  -10.3641  -24.4778  -33.2188 H   0  0  0  0  0  0  0  0  0  0  0  0
  -11.5666  -25.6153  -33.8556 H   0  0  0  0  0  0  0  0  0  0  0  0
  -13.1697  -26.8921  -37.3994 H   0  0  0  0  0  0  0  0  0  0  0  0
  -12.3101  -26.8914  -35.8482 H   0  0  0  0  0  0  0  0  0  0  0  0
  1  6  2  0  0  0  0
  1  7  2  0  0  0  0
  2  4  1  0  0  0  0
  3  5  1  0  0  0  0
  4  6  1  0  0  0  0
  5  7  1  0  0  0  0
  2  8  1  0  0  0  0
  2  9  1  0  0  0  0
  2 10  1  0  0  0  0
  3 11  1  0  0  0  0
  3 12  1  0  0  0  0
  3 13  1  0  0  0  0
  4 14  1  0  0  0  0
  4 15  1  0  0  0  0
  5 16  1  0  0  0  0
  5 17  1  0  0  0  0
M  END
> <Name>
IA_155.cdx

> <SourceTag>
IA_155

> <Gold.Version>
5.2

> <Gold.Id.Protein>
6HGV|6HGV_protein|mol2

> <Gold.Goldscore.Fitness>
33.3053

> <Gold.Goldscore.Internal.Vdw>
-2.7306

> <Gold.Goldscore.Internal.Torsion>
-1.2978

> <Gold.Goldscore.External.Vdw>
23.0640

> <Gold.Goldscore.Internal.HBond>
0.0000

> <Gold.Goldscore.External.HBond>
1.7775

> <Gold.Goldscore.Internal.Correction>
-3.8431

> <Gold.Goldscore.Hbonds>
donor molecule, donor type, donor heavy atom, donor atom, acceptor molecule, acceptor atom, score
      P1  H  1931  4507       L1     7  0.89

> <Gold.Goldscore.Internal.Vdw.Weighted>
-2.7306

> <Gold.Goldscore.Internal.Torsion.Weighted>
-1.2978

> <Gold.Goldscore.External.Vdw.Weighted>
31.7130

> <Gold.Goldscore.Internal.HBond.Weighted>
0.0000

> <Gold.Goldscore.External.HBond.Weighted>
1.7775

> <Gold.Goldscore.Internal.Correction.Weighted>
-3.8431

> <Gold.Protein.RotatedTorsions>
[ 3781 1176 1175 1172 ] final -172.90 input   60.00 | X-H torsion
[ 3847 1247 1246 1244 ] final   45.65 input   60.00 | X-H torsion
[ 4507 1931 1930 1928 ] final   44.95 input   60.00 | X-H torsion
[ 3677 1070 1069 1066 ] final  -96.21 input   60.00 | X-H torsion
[ 3525  925  924  922 ] final -173.96 input   59.99 | X-H torsion
[ 4531 1957 1955 1953 ] final  -64.34 input   60.00 | X-H torsion

> <Gold.Protein.ActiveResidues>
 PHE267  PRO268  MET310  ASP335  TRP336  MET339  TYR343  THR360  PRO361  ILE363 
 PRO371  SER374  ILE375  ASN378  PHE381  TYR383  GLN384  PHE387  LEU408  LEU417 
 MET419  LEU428  TYR466  MET469  ASN472  ASP496  VAL498  LEU499  MET503  HIS524 
 TRP525 

> <Gold.Protein.RotatedAtoms>
   -2.2888  -30.2217  -29.3234 H   0  0  0  0  0  0  0  0  0  0  0  0  # atno 3525 bound_to 925 
  -11.7906  -23.7774  -31.4028 H   0  0  0  0  0  0  0  0  0  0  0  0  # atno 3677 bound_to 1070
   -9.2510  -36.4688  -32.9620 H   0  0  0  0  0  0  0  0  0  0  0  0  # atno 3781 bound_to 1176
  -15.0452  -28.9610  -37.2228 H   0  0  0  0  0  0  0  0  0  0  0  0  # atno 3847 bound_to 1247
  -12.7751  -24.8706  -38.7953 H   0  0  0  0  0  0  0  0  0  0  0  0  # atno 4507 bound_to 1931
   -1.9122  -32.2346  -36.8640 H   0  0  0  0  0  0  0  0  0  0  0  0  # atno 4531 bound_to 1957
  -10.5363  -37.4274  -32.6840 LP  0  0  0  0  0  0  0  0  0  0  0  0  # atno 5205 bound_to 1176
  -10.3290  -36.7398  -34.1505 LP  0  0  0  0  0  0  0  0  0  0  0  0  # atno 5206 bound_to 1176
  -16.0164  -27.6603  -37.3365 LP  0  0  0  0  0  0  0  0  0  0  0  0  # atno 5215 bound_to 1247
  -14.5038  -27.6095  -37.9496 LP  0  0  0  0  0  0  0  0  0  0  0  0  # atno 5216 bound_to 1247
  -13.7015  -25.0809  -40.1165 LP  0  0  0  0  0  0  0  0  0  0  0  0  # atno 5217 bound_to 1931
  -12.7202  -23.7806  -40.0024 LP  0  0  0  0  0  0  0  0  0  0  0  0  # atno 5218 bound_to 1931
  -11.2945  -22.3374  -30.8296 LP  0  0  0  0  0  0  0  0  0  0  0  0  # atno 5224 bound_to 1070
  -12.7700  -22.9133  -30.4321 LP  0  0  0  0  0  0  0  0  0  0  0  0  # atno 5225 bound_to 1070

$$$$
IA_94.cdx|SeH_inactivess_minimized|sdf|173|dock4
  -GOLD-   41821 8343D 1   1.00000     0.00000

 53 52  0  0  0  0  0  0  0  0  1 V2000
  -18.1124  -24.7199  -36.7932 C   0  0  0  0  0  0  0  0  0  0  0  0
   -4.6197  -32.9734  -35.0495 C   0  0  0  0  0  0  0  0  0  0  0  0
  -20.9980  -24.8608  -38.2682 C   0  0  0  0  0  0  0  0  0  0  0  0
   -4.0477  -31.5646  -35.0134 C   0  0  0  0  0  0  0  0  0  0  0  0
   -4.9696  -30.5491  -34.3349 C   0  0  0  0  0  0  0  0  0  0  0  0
   -6.2412  -30.2553  -35.1360 C   0  0  0  0  0  0  0  0  0  0  0  0
   -7.0667  -29.1494  -34.4730 C   0  0  0  0  0  0  0  0  0  0  0  0
   -8.3430  -28.7974  -35.2430 C   0  0  0  0  0  0  0  0  0  0  0  0
   -9.0557  -27.5542  -34.7037 C   0  0  0  0  0  0  0  0  0  0  0  0
  -10.2909  -27.2195  -35.5439 C   0  0  0  0  0  0  0  0  0  0  0  0
  -10.7648  -25.7723  -35.3787 C   0  0  0  0  0  0  0  0  0  0  0  0
  -11.8682  -25.3194  -36.3409 C   0  0  0  0  0  0  0  0  0  0  0  0
  -13.2778  -25.8274  -36.0217 C   0  0  0  0  0  0  0  0  0  0  0  0
  -14.3556  -25.2400  -36.9382 C   0  0  0  0  0  0  0  0  0  0  0  0
  -20.2864  -23.7614  -37.5560 C   0  0  0  0  0  0  0  0  0  0  0  0
  -15.7621  -25.4327  -36.3782 C   0  0  0  0  0  0  0  0  0  0  0  0
  -18.8536  -23.9172  -37.6561 N   0  0  0  0  0  0  0  0  0  0  0  0
  -16.7529  -24.6924  -37.1104 N   0  0  0  0  0  0  0  0  0  0  0  0
  -18.5907  -25.3733  -35.8670 O   0  0  0  0  0  0  0  0  0  0  0  0
   -5.5628  -33.0002  -35.6043 H   0  0  0  0  0  0  0  0  0  0  0  0
   -4.8157  -33.3252  -34.0314 H   0  0  0  0  0  0  0  0  0  0  0  0
   -3.9236  -33.6778  -35.5142 H   0  0  0  0  0  0  0  0  0  0  0  0
  -20.6538  -25.8401  -37.9184 H   0  0  0  0  0  0  0  0  0  0  0  0
  -22.0808  -24.7848  -38.1207 H   0  0  0  0  0  0  0  0  0  0  0  0
  -20.7975  -24.7969  -39.3445 H   0  0  0  0  0  0  0  0  0  0  0  0
   -3.0969  -31.5892  -34.4674 H   0  0  0  0  0  0  0  0  0  0  0  0
   -3.8183  -31.2378  -36.0342 H   0  0  0  0  0  0  0  0  0  0  0  0
   -4.4094  -29.6159  -34.1973 H   0  0  0  0  0  0  0  0  0  0  0  0
   -5.2370  -30.9077  -33.3335 H   0  0  0  0  0  0  0  0  0  0  0  0
   -6.8523  -31.1611  -35.2153 H   0  0  0  0  0  0  0  0  0  0  0  0
   -5.9624  -29.9571  -36.1526 H   0  0  0  0  0  0  0  0  0  0  0  0
   -6.4514  -28.2496  -34.3516 H   0  0  0  0  0  0  0  0  0  0  0  0
   -7.3546  -29.4732  -33.4650 H   0  0  0  0  0  0  0  0  0  0  0  0
   -9.0251  -29.6547  -35.1829 H   0  0  0  0  0  0  0  0  0  0  0  0
   -8.1049  -28.6572  -36.3044 H   0  0  0  0  0  0  0  0  0  0  0  0
   -9.3463  -27.7313  -33.6623 H   0  0  0  0  0  0  0  0  0  0  0  0
   -8.3740  -26.6967  -34.7130 H   0  0  0  0  0  0  0  0  0  0  0  0
  -10.0559  -27.3799  -36.6037 H   0  0  0  0  0  0  0  0  0  0  0  0
  -11.1052  -27.9120  -35.3023 H   0  0  0  0  0  0  0  0  0  0  0  0
   -9.8987  -25.1078  -35.4815 H   0  0  0  0  0  0  0  0  0  0  0  0
  -11.1271  -25.6339  -34.3520 H   0  0  0  0  0  0  0  0  0  0  0  0
  -11.5957  -25.6446  -37.3529 H   0  0  0  0  0  0  0  0  0  0  0  0
  -11.8918  -24.2238  -36.3756 H   0  0  0  0  0  0  0  0  0  0  0  0
  -13.2980  -26.9219  -36.0659 H   0  0  0  0  0  0  0  0  0  0  0  0
  -13.5074  -25.5579  -34.9832 H   0  0  0  0  0  0  0  0  0  0  0  0
  -14.2964  -25.6985  -37.9318 H   0  0  0  0  0  0  0  0  0  0  0  0
  -14.1739  -24.1660  -37.0645 H   0  0  0  0  0  0  0  0  0  0  0  0
  -20.5485  -23.7599  -36.4937 H   0  0  0  0  0  0  0  0  0  0  0  0
  -20.5466  -22.7891  -37.9844 H   0  0  0  0  0  0  0  0  0  0  0  0
  -15.8046  -25.0836  -35.3418 H   0  0  0  0  0  0  0  0  0  0  0  0
  -16.0523  -26.4880  -36.3955 H   0  0  0  0  0  0  0  0  0  0  0  0
  -18.3635  -23.4172  -38.3914 H   0  0  0  0  0  0  0  0  0  0  0  0
  -16.4592  -24.1570  -37.9253 H   0  0  0  0  0  0  0  0  0  0  0  0
  1 17  1  0  0  0  0
  1 18  1  0  0  0  0
  1 19  2  0  0  0  0
  2  4  1  0  0  0  0
  3 15  1  0  0  0  0
  4  5  1  0  0  0  0
  5  6  1  0  0  0  0
  6  7  1  0  0  0  0
  7  8  1  0  0  0  0
  8  9  1  0  0  0  0
  9 10  1  0  0  0  0
 10 11  1  0  0  0  0
 11 12  1  0  0  0  0
 12 13  1  0  0  0  0
 13 14  1  0  0  0  0
 14 16  1  0  0  0  0
 15 17  1  0  0  0  0
 16 18  1  0  0  0  0
  2 20  1  0  0  0  0
  2 21  1  0  0  0  0
  2 22  1  0  0  0  0
  3 23  1  0  0  0  0
  3 24  1  0  0  0  0
  3 25  1  0  0  0  0
  4 26  1  0  0  0  0
  4 27  1  0  0  0  0
  5 28  1  0  0  0  0
  5 29  1  0  0  0  0
  6 30  1  0  0  0  0
  6 31  1  0  0  0  0
  7 32  1  0  0  0  0
  7 33  1  0  0  0  0
  8 34  1  0  0  0  0
  8 35  1  0  0  0  0
  9 36  1  0  0  0  0
  9 37  1  0  0  0  0
 10 38  1  0  0  0  0
 10 39  1  0  0  0  0
 11 40  1  0  0  0  0
 11 41  1  0  0  0  0
 12 42  1  0  0  0  0
 12 43  1  0  0  0  0
 13 44  1  0  0  0  0
 13 45  1  0  0  0  0
 14 46  1  0  0  0  0
 14 47  1  0  0  0  0
 15 48  1  0  0  0  0
 15 49  1  0  0  0  0
 16 50  1  0  0  0  0
 16 51  1  0  0  0  0
 17 52  1  0  0  0  0
 18 53  1  0  0  0  0
M  END
> <Name>
IA_94.cdx

> <SourceTag>
IA_94

> <Gold.Version>
5.2

> <Gold.Id.Protein>
6HGV|6HGV_protein|mol2

> <Gold.Goldscore.Fitness>
65.4308

> <Gold.Goldscore.Internal.Vdw>
-6.2573

> <Gold.Goldscore.Internal.Torsion>
-3.7059

> <Gold.Goldscore.External.Vdw>
50.3178

> <Gold.Goldscore.Internal.HBond>
0.0000

> <Gold.Goldscore.External.HBond>
0.0000

> <Gold.Goldscore.Internal.Correction>
-6.2070

> <Gold.Goldscore.Internal.Vdw.Weighted>
-6.2573

> <Gold.Goldscore.Internal.Torsion.Weighted>
-3.7059

> <Gold.Goldscore.External.Vdw.Weighted>
69.1870

> <Gold.Goldscore.Internal.HBond.Weighted>
0.0000

> <Gold.Goldscore.External.HBond.Weighted>
0.0000

> <Gold.Goldscore.Internal.Correction.Weighted>
-6.2070

> <Gold.Protein.RotatedTorsions>
[ 3781 1176 1175 1172 ] final -166.80 input   60.00 | X-H torsion
[ 3847 1247 1246 1244 ] final  103.30 input   60.00 | X-H torsion
[ 4507 1931 1930 1928 ] final  114.19 input   60.00 | X-H torsion
[ 3677 1070 1069 1066 ] final -101.27 input   60.00 | X-H torsion
[ 3525  925  924  922 ] final   37.87 input   59.99 | X-H torsion
[ 4531 1957 1955 1953 ] final  -88.00 input   60.00 | X-H torsion

> <Gold.Protein.ActiveResidues>
 PHE267  PRO268  MET310  ASP335  TRP336  MET339  TYR343  THR360  PRO361  ILE363 
 PRO371  SER374  ILE375  ASN378  PHE381  TYR383  GLN384  PHE387  LEU408  LEU417 
 MET419  LEU428  TYR466  MET469  ASN472  ASP496  VAL498  LEU499  MET503  HIS524 
 TRP525 

> <Gold.Protein.RotatedAtoms>
   -3.1341  -29.7153  -30.8306 H   0  0  0  0  0  0  0  0  0  0  0  0  # atno 3525 bound_to 925 
  -11.7166  -23.7453  -31.4209 H   0  0  0  0  0  0  0  0  0  0  0  0  # atno 3677 bound_to 1070
   -9.2428  -36.4293  -33.0530 H   0  0  0  0  0  0  0  0  0  0  0  0  # atno 3781 bound_to 1176
  -14.3793  -28.5266  -37.6503 H   0  0  0  0  0  0  0  0  0  0  0  0  # atno 3847 bound_to 1247
  -12.4354  -23.9852  -39.2774 H   0  0  0  0  0  0  0  0  0  0  0  0  # atno 4507 bound_to 1931
   -1.5813  -32.4178  -36.9301 H   0  0  0  0  0  0  0  0  0  0  0  0  # atno 4531 bound_to 1957
  -10.4671  -37.4074  -32.6142 LP  0  0  0  0  0  0  0  0  0  0  0  0  # atno 5205 bound_to 1176
  -10.4064  -36.7996  -34.1286 LP  0  0  0  0  0  0  0  0  0  0  0  0  # atno 5206 bound_to 1176
  -15.8944  -28.5167  -37.0567 LP  0  0  0  0  0  0  0  0  0  0  0  0  # atno 5215 bound_to 1247
  -15.2964  -27.1906  -37.7987 LP  0  0  0  0  0  0  0  0  0  0  0  0  # atno 5216 bound_to 1247
  -13.3204  -25.3448  -39.1506 LP  0  0  0  0  0  0  0  0  0  0  0  0  # atno 5217 bound_to 1931
  -13.4435  -24.4083  -40.4827 LP  0  0  0  0  0  0  0  0  0  0  0  0  # atno 5218 bound_to 1931
  -11.3470  -22.2958  -30.7801 LP  0  0  0  0  0  0  0  0  0  0  0  0  # atno 5224 bound_to 1070
  -12.7921  -22.9873  -30.4634 LP  0  0  0  0  0  0  0  0  0  0  0  0  # atno 5225 bound_to 1070

$$$$
IA_165.cdx|SeH_inactivess_minimized|sdf|67|dock3
  -GOLD-   4172120 53D 1   1.00000     0.00000

 32 31  0  0  0  0  0  0  0  0  1 V2000
  -14.3011  -25.8786  -36.7556 C   0  0  0  0  0  0  0  0  0  0  0  0
  -19.3102  -24.9989  -37.1203 C   0  0  0  0  0  0  0  0  0  0  0  0
   -9.3466  -26.0263  -34.3025 C   0  0  0  0  0  0  0  0  0  0  0  0
  -18.5004  -23.9848  -37.9132 C   0  0  0  0  0  0  0  0  0  0  0  0
  -10.6385  -25.4352  -33.7600 C   0  0  0  0  0  0  0  0  0  0  0  0
  -17.0062  -24.0964  -37.6012 C   0  0  0  0  0  0  0  0  0  0  0  0
  -11.5881  -25.0347  -34.8913 C   0  0  0  0  0  0  0  0  0  0  0  0
  -16.4055  -25.4153  -38.0760 C   0  0  0  0  0  0  0  0  0  0  0  0
  -11.9993  -26.2200  -35.7583 C   0  0  0  0  0  0  0  0  0  0  0  0
  -14.9806  -25.4641  -37.8985 N   0  0  0  0  0  0  0  0  0  0  0  0
  -12.9209  -25.8415  -36.8117 N   0  0  0  0  0  0  0  0  0  0  0  0
  -15.0362  -26.4092  -35.3396 S   0  0  0  0  0  0  0  0  0  0  0  0
  -19.1345  -26.0149  -37.4882 H   0  0  0  0  0  0  0  0  0  0  0  0
  -19.0274  -24.9665  -36.0634 H   0  0  0  0  0  0  0  0  0  0  0  0
  -20.3819  -24.7878  -37.1917 H   0  0  0  0  0  0  0  0  0  0  0  0
   -9.5063  -27.0440  -34.6730 H   0  0  0  0  0  0  0  0  0  0  0  0
   -8.9702  -25.4180  -35.1309 H   0  0  0  0  0  0  0  0  0  0  0  0
   -8.5743  -26.0597  -33.5273 H   0  0  0  0  0  0  0  0  0  0  0  0
  -18.6699  -24.1482  -38.9838 H   0  0  0  0  0  0  0  0  0  0  0  0
  -18.8631  -22.9783  -37.6764 H   0  0  0  0  0  0  0  0  0  0  0  0
  -11.1247  -26.1714  -33.1093 H   0  0  0  0  0  0  0  0  0  0  0  0
  -10.3972  -24.5637  -33.1411 H   0  0  0  0  0  0  0  0  0  0  0  0
  -16.4708  -23.2574  -38.0627 H   0  0  0  0  0  0  0  0  0  0  0  0
  -16.8590  -24.0165  -36.5173 H   0  0  0  0  0  0  0  0  0  0  0  0
  -12.4806  -24.5559  -34.4699 H   0  0  0  0  0  0  0  0  0  0  0  0
  -11.0936  -24.2916  -35.5287 H   0  0  0  0  0  0  0  0  0  0  0  0
  -16.6179  -25.5903  -39.1354 H   0  0  0  0  0  0  0  0  0  0  0  0
  -16.8275  -26.2465  -37.5021 H   0  0  0  0  0  0  0  0  0  0  0  0
  -12.4761  -27.0033  -35.1607 H   0  0  0  0  0  0  0  0  0  0  0  0
  -11.1183  -26.6512  -36.2444 H   0  0  0  0  0  0  0  0  0  0  0  0
  -14.4136  -25.1634  -38.6917 H   0  0  0  0  0  0  0  0  0  0  0  0
  -12.5100  -25.5152  -37.6812 H   0  0  0  0  0  0  0  0  0  0  0  0
  1 10  1  0  0  0  0
  1 11  1  0  0  0  0
  1 12  2  0  0  0  0
  2  4  1  0  0  0  0
  3  5  1  0  0  0  0
  4  6  1  0  0  0  0
  5  7  1  0  0  0  0
  6  8  1  0  0  0  0
  7  9  1  0  0  0  0
  8 10  1  0  0  0  0
  9 11  1  0  0  0  0
  2 13  1  0  0  0  0
  2 14  1  0  0  0  0
  2 15  1  0  0  0  0
  3 16  1  0  0  0  0
  3 17  1  0  0  0  0
  3 18  1  0  0  0  0
  4 19  1  0  0  0  0
  4 20  1  0  0  0  0
  5 21  1  0  0  0  0
  5 22  1  0  0  0  0
  6 23  1  0  0  0  0
  6 24  1  0  0  0  0
  7 25  1  0  0  0  0
  7 26  1  0  0  0  0
  8 27  1  0  0  0  0
  8 28  1  0  0  0  0
  9 29  1  0  0  0  0
  9 30  1  0  0  0  0
 10 31  1  0  0  0  0
 11 32  1  0  0  0  0
M  END
> <Name>
IA_165.cdx

> <SourceTag>
IA_165

> <Gold.Version>
5.2

> <Gold.Id.Protein>
6HGV|6HGV_protein|mol2

> <Gold.Goldscore.Fitness>
51.2927

> <Gold.Goldscore.Internal.Vdw>
-3.8805

> <Gold.Goldscore.Internal.Torsion>
-2.0945

> <Gold.Goldscore.External.Vdw>
37.4044

> <Gold.Goldscore.Internal.HBond>
0.0000

> <Gold.Goldscore.External.HBond>
2.1379

> <Gold.Goldscore.Internal.Correction>
-3.6988

> <Gold.Goldscore.Hbonds>
donor molecule, donor type, donor heavy atom, donor atom, acceptor molecule, acceptor atom, score
      L1  H    10    31       P1  1931  0.78
      L1  H    11    32       P1  1931  0.29

> <Gold.Goldscore.Internal.Vdw.Weighted>
-3.8805

> <Gold.Goldscore.Internal.Torsion.Weighted>
-2.0945

> <Gold.Goldscore.External.Vdw.Weighted>
51.4310

> <Gold.Goldscore.Internal.HBond.Weighted>
0.0000

> <Gold.Goldscore.External.HBond.Weighted>
2.1379

> <Gold.Goldscore.Internal.Correction.Weighted>
-3.6988

> <Gold.Protein.RotatedTorsions>
[ 3781 1176 1175 1172 ] final  -81.47 input   60.00 | X-H torsion
[ 3847 1247 1246 1244 ] final   97.53 input   60.00 | X-H torsion
[ 4507 1931 1930 1928 ] final  139.70 input   60.00 | X-H torsion
[ 3677 1070 1069 1066 ] final  -84.80 input   60.00 | X-H torsion
[ 3525  925  924  922 ] final   80.82 input   59.99 | X-H torsion
[ 4531 1957 1955 1953 ] final  -27.98 input   60.00 | X-H torsion

> <Gold.Protein.ActiveResidues>
 PHE267  PRO268  MET310  ASP335  TRP336  MET339  TYR343  THR360  PRO361  ILE363 
 PRO371  SER374  ILE375  ASN378  PHE381  TYR383  GLN384  PHE387  LEU408  LEU417 
 MET419  LEU428  TYR466  MET469  ASN472  ASP496  VAL498  LEU499  MET503  HIS524 
 TRP525 

> <Gold.Protein.RotatedAtoms>
   -2.5095  -29.9925  -30.7767 H   0  0  0  0  0  0  0  0  0  0  0  0  # atno 3525 bound_to 925 
  -11.9611  -23.8276  -31.3475 H   0  0  0  0  0  0  0  0  0  0  0  0  # atno 3677 bound_to 1070
   -9.9368  -36.4951  -34.1133 H   0  0  0  0  0  0  0  0  0  0  0  0  # atno 3781 bound_to 1176
  -14.4179  -28.6008  -37.6068 H   0  0  0  0  0  0  0  0  0  0  0  0  # atno 3847 bound_to 1247
  -12.5270  -23.8118  -39.6413 H   0  0  0  0  0  0  0  0  0  0  0  0  # atno 4507 bound_to 1931
   -2.4860  -32.2498  -36.7552 H   0  0  0  0  0  0  0  0  0  0  0  0  # atno 4531 bound_to 1957
   -9.4003  -36.7042  -32.5913 LP  0  0  0  0  0  0  0  0  0  0  0  0  # atno 5205 bound_to 1176
  -10.7743  -37.4365  -33.0837 LP  0  0  0  0  0  0  0  0  0  0  0  0  # atno 5206 bound_to 1176
  -15.9445  -28.4368  -37.0677 LP  0  0  0  0  0  0  0  0  0  0  0  0  # atno 5215 bound_to 1247
  -15.2075  -27.1958  -37.8316 LP  0  0  0  0  0  0  0  0  0  0  0  0  # atno 5216 bound_to 1247
  -13.0442  -25.1635  -38.8974 LP  0  0  0  0  0  0  0  0  0  0  0  0  # atno 5217 bound_to 1931
  -13.6273  -24.7642  -40.3695 LP  0  0  0  0  0  0  0  0  0  0  0  0  # atno 5218 bound_to 1931
  -11.1957  -22.4499  -30.9422 LP  0  0  0  0  0  0  0  0  0  0  0  0  # atno 5224 bound_to 1070
  -12.6972  -22.7503  -30.3751 LP  0  0  0  0  0  0  0  0  0  0  0  0  # atno 5225 bound_to 1070

$$$$
IA_97.cdx|SeH_inactivess_minimized|sdf|176|dock1
  -GOLD-   41821 8423D 1   1.00000     0.00000

 59 58  0  0  0  0  0  0  0  0  1 V2000
  -19.2100  -25.2116  -36.8034 C   0  0  0  0  0  0  0  0  0  0  0  0
   -4.6436  -32.6281  -35.1332 C   0  0  0  0  0  0  0  0  0  0  0  0
  -25.0586  -24.7085  -34.6144 C   0  0  0  0  0  0  0  0  0  0  0  0
   -5.0508  -31.1948  -34.8283 C   0  0  0  0  0  0  0  0  0  0  0  0
  -24.1087  -25.1733  -35.7073 C   0  0  0  0  0  0  0  0  0  0  0  0
   -6.5584  -30.9541  -34.9301 C   0  0  0  0  0  0  0  0  0  0  0  0
   -6.9641  -29.5107  -34.6190 C   0  0  0  0  0  0  0  0  0  0  0  0
   -8.3676  -29.2061  -35.1495 C   0  0  0  0  0  0  0  0  0  0  0  0
   -8.8488  -27.7897  -34.8214 C   0  0  0  0  0  0  0  0  0  0  0  0
  -10.0867  -27.3678  -35.6175 C   0  0  0  0  0  0  0  0  0  0  0  0
  -10.5209  -25.9469  -35.2487 C   0  0  0  0  0  0  0  0  0  0  0  0
  -11.6870  -25.4282  -36.0956 C   0  0  0  0  0  0  0  0  0  0  0  0
  -13.0692  -25.9838  -35.7364 C   0  0  0  0  0  0  0  0  0  0  0  0
  -14.2275  -25.5040  -36.6166 C   0  0  0  0  0  0  0  0  0  0  0  0
  -22.6538  -25.1417  -35.2336 C   0  0  0  0  0  0  0  0  0  0  0  0
  -15.6035  -25.7219  -35.9795 C   0  0  0  0  0  0  0  0  0  0  0  0
  -21.6625  -25.3679  -36.3702 C   0  0  0  0  0  0  0  0  0  0  0  0
  -16.7240  -25.0601  -36.7768 C   0  0  0  0  0  0  0  0  0  0  0  0
  -20.2895  -25.2905  -35.9276 N   0  0  0  0  0  0  0  0  0  0  0  0
  -17.9969  -25.1476  -36.1150 N   0  0  0  0  0  0  0  0  0  0  0  0
  -19.3080  -25.1989  -38.0297 O   0  0  0  0  0  0  0  0  0  0  0  0
   -5.1462  -33.3306  -34.4609 H   0  0  0  0  0  0  0  0  0  0  0  0
   -3.5634  -32.7476  -35.0018 H   0  0  0  0  0  0  0  0  0  0  0  0
   -4.8835  -32.9030  -36.1645 H   0  0  0  0  0  0  0  0  0  0  0  0
  -24.8477  -23.6738  -34.3256 H   0  0  0  0  0  0  0  0  0  0  0  0
  -26.0940  -24.7589  -34.9657 H   0  0  0  0  0  0  0  0  0  0  0  0
  -24.9711  -25.3389  -33.7238 H   0  0  0  0  0  0  0  0  0  0  0  0
   -4.7285  -30.9511  -33.8088 H   0  0  0  0  0  0  0  0  0  0  0  0
   -4.5171  -30.5130  -35.5006 H   0  0  0  0  0  0  0  0  0  0  0  0
  -24.3796  -26.1918  -36.0090 H   0  0  0  0  0  0  0  0  0  0  0  0
  -24.2358  -24.5296  -36.5850 H   0  0  0  0  0  0  0  0  0  0  0  0
   -7.0615  -31.6273  -34.2249 H   0  0  0  0  0  0  0  0  0  0  0  0
   -6.9072  -31.2292  -35.9329 H   0  0  0  0  0  0  0  0  0  0  0  0
   -6.2500  -28.8143  -35.0724 H   0  0  0  0  0  0  0  0  0  0  0  0
   -6.9310  -29.3558  -33.5349 H   0  0  0  0  0  0  0  0  0  0  0  0
   -9.0812  -29.9377  -34.7513 H   0  0  0  0  0  0  0  0  0  0  0  0
   -8.3710  -29.3237  -36.2403 H   0  0  0  0  0  0  0  0  0  0  0  0
   -8.0297  -27.0925  -35.0380 H   0  0  0  0  0  0  0  0  0  0  0  0
   -9.0544  -27.7112  -33.7469 H   0  0  0  0  0  0  0  0  0  0  0  0
   -9.8610  -27.4259  -36.6880 H   0  0  0  0  0  0  0  0  0  0  0  0
  -10.9144  -28.0575  -35.4185 H   0  0  0  0  0  0  0  0  0  0  0  0
  -10.8329  -25.9307  -34.1967 H   0  0  0  0  0  0  0  0  0  0  0  0
   -9.6670  -25.2642  -35.3256 H   0  0  0  0  0  0  0  0  0  0  0  0
  -11.4736  -25.6403  -37.1500 H   0  0  0  0  0  0  0  0  0  0  0  0
  -11.7250  -24.3346  -36.0128 H   0  0  0  0  0  0  0  0  0  0  0  0
  -13.2847  -25.7197  -34.6933 H   0  0  0  0  0  0  0  0  0  0  0  0
  -13.0386  -27.0794  -35.7667 H   0  0  0  0  0  0  0  0  0  0  0  0
  -14.0900  -24.4468  -36.8693 H   0  0  0  0  0  0  0  0  0  0  0  0
  -14.1825  -26.0546  -37.5647 H   0  0  0  0  0  0  0  0  0  0  0  0
  -22.4467  -24.1809  -34.7463 H   0  0  0  0  0  0  0  0  0  0  0  0
  -22.5047  -25.9247  -34.4801 H   0  0  0  0  0  0  0  0  0  0  0  0
  -15.6104  -25.3328  -34.9551 H   0  0  0  0  0  0  0  0  0  0  0  0
  -15.8057  -26.7980  -35.9199 H   0  0  0  0  0  0  0  0  0  0  0  0
  -21.7995  -24.6327  -37.1694 H   0  0  0  0  0  0  0  0  0  0  0  0
  -21.8047  -26.3657  -36.7974 H   0  0  0  0  0  0  0  0  0  0  0  0
  -16.8350  -25.5523  -37.7480 H   0  0  0  0  0  0  0  0  0  0  0  0
  -16.5103  -24.0011  -36.9528 H   0  0  0  0  0  0  0  0  0  0  0  0
  -20.1027  -25.2938  -34.9298 H   0  0  0  0  0  0  0  0  0  0  0  0
  -18.0215  -25.1175  -35.0975 H   0  0  0  0  0  0  0  0  0  0  0  0
  1 19  1  0  0  0  0
  1 20  1  0  0  0  0
  1 21  2  0  0  0  0
  2  4  1  0  0  0  0
  3  5  1  0  0  0  0
  4  6  1  0  0  0  0
  5 15  1  0  0  0  0
  6  7  1  0  0  0  0
  7  8  1  0  0  0  0
  8  9  1  0  0  0  0
  9 10  1  0  0  0  0
 10 11  1  0  0  0  0
 11 12  1  0  0  0  0
 12 13  1  0  0  0  0
 13 14  1  0  0  0  0
 14 16  1  0  0  0  0
 15 17  1  0  0  0  0
 16 18  1  0  0  0  0
 17 19  1  0  0  0  0
 18 20  1  0  0  0  0
  2 22  1  0  0  0  0
  2 23  1  0  0  0  0
  2 24  1  0  0  0  0
  3 25  1  0  0  0  0
  3 26  1  0  0  0  0
  3 27  1  0  0  0  0
  4 28  1  0  0  0  0
  4 29  1  0  0  0  0
  5 30  1  0  0  0  0
  5 31  1  0  0  0  0
  6 32  1  0  0  0  0
  6 33  1  0  0  0  0
  7 34  1  0  0  0  0
  7 35  1  0  0  0  0
  8 36  1  0  0  0  0
  8 37  1  0  0  0  0
  9 38  1  0  0  0  0
  9 39  1  0  0  0  0
 10 40  1  0  0  0  0
 10 41  1  0  0  0  0
 11 42  1  0  0  0  0
 11 43  1  0  0  0  0
 12 44  1  0  0  0  0
 12 45  1  0  0  0  0
 13 46  1  0  0  0  0
 13 47  1  0  0  0  0
 14 48  1  0  0  0  0
 14 49  1  0  0  0  0
 15 50  1  0  0  0  0
 15 51  1  0  0  0  0
 16 52  1  0  0  0  0
 16 53  1  0  0  0  0
 17 54  1  0  0  0  0
 17 55  1  0  0  0  0
 18 56  1  0  0  0  0
 18 57  1  0  0  0  0
 19 58  1  0  0  0  0
 20 59  1  0  0  0  0
M  END
> <Name>
IA_97.cdx

> <SourceTag>
IA_97

> <Gold.Version>
5.2

> <Gold.Id.Protein>
6HGV|6HGV_protein|mol2

> <Gold.Goldscore.Fitness>
76.6392

> <Gold.Goldscore.Internal.Vdw>
-6.4326

> <Gold.Goldscore.Internal.Torsion>
-4.0852

> <Gold.Goldscore.External.Vdw>
55.9086

> <Gold.Goldscore.Internal.HBond>
0.0000

> <Gold.Goldscore.External.HBond>
1.5438

> <Gold.Goldscore.Internal.Correction>
-8.7389

> <Gold.Goldscore.Hbonds>
donor molecule, donor type, donor heavy atom, donor atom, acceptor molecule, acceptor atom, score
      L1  H    19    58       P1  2185  0.26

> <Gold.Goldscore.Internal.Vdw.Weighted>
-6.4326

> <Gold.Goldscore.Internal.Torsion.Weighted>
-4.0852

> <Gold.Goldscore.External.Vdw.Weighted>
76.8743

> <Gold.Goldscore.Internal.HBond.Weighted>
0.0000

> <Gold.Goldscore.External.HBond.Weighted>
1.5438

> <Gold.Goldscore.Internal.Correction.Weighted>
-8.7389

> <Gold.Protein.RotatedTorsions>
[ 3781 1176 1175 1172 ] final -167.67 input   60.00 | X-H torsion
[ 3847 1247 1246 1244 ] final   96.07 input   60.00 | X-H torsion
[ 4507 1931 1930 1928 ] final   88.96 input   60.00 | X-H torsion
[ 3677 1070 1069 1066 ] final  -99.09 input   60.00 | X-H torsion
[ 3525  925  924  922 ] final   46.29 input   59.99 | X-H torsion
[ 4531 1957 1955 1953 ] final  -63.04 input   60.00 | X-H torsion

> <Gold.Protein.ActiveResidues>
 PHE267  PRO268  MET310  ASP335  TRP336  MET339  TYR343  THR360  PRO361  ILE363 
 PRO371  SER374  ILE375  ASN378  PHE381  TYR383  GLN384  PHE387  LEU408  LEU417 
 MET419  LEU428  TYR466  MET469  ASN472  ASP496  VAL498  LEU499  MET503  HIS524 
 TRP525 

> <Gold.Protein.RotatedAtoms>
   -3.0102  -29.7665  -30.8608 H   0  0  0  0  0  0  0  0  0  0  0  0  # atno 3525 bound_to 925 
  -11.7483  -23.7598  -31.4136 H   0  0  0  0  0  0  0  0  0  0  0  0  # atno 3677 bound_to 1070
   -9.2435  -36.4346  -33.0399 H   0  0  0  0  0  0  0  0  0  0  0  0  # atno 3781 bound_to 1176
  -14.4289  -28.6188  -37.5956 H   0  0  0  0  0  0  0  0  0  0  0  0  # atno 3847 bound_to 1247
  -12.4653  -24.2707  -38.9862 H   0  0  0  0  0  0  0  0  0  0  0  0  # atno 4507 bound_to 1931
   -1.9322  -32.2287  -36.8601 H   0  0  0  0  0  0  0  0  0  0  0  0  # atno 4531 bound_to 1957
  -10.4772  -37.4106  -32.6236 LP  0  0  0  0  0  0  0  0  0  0  0  0  # atno 5205 bound_to 1176
  -10.3957  -36.7911  -34.1323 LP  0  0  0  0  0  0  0  0  0  0  0  0  # atno 5206 bound_to 1176
  -15.9559  -28.4160  -37.0711 LP  0  0  0  0  0  0  0  0  0  0  0  0  # atno 5215 bound_to 1247
  -15.1850  -27.1986  -37.8394 LP  0  0  0  0  0  0  0  0  0  0  0  0  # atno 5216 bound_to 1247
  -13.5448  -25.3771  -39.4945 LP  0  0  0  0  0  0  0  0  0  0  0  0  # atno 5217 bound_to 1931
  -13.1889  -24.0885  -40.4322 LP  0  0  0  0  0  0  0  0  0  0  0  0  # atno 5218 bound_to 1931
  -11.3238  -22.3131  -30.8013 LP  0  0  0  0  0  0  0  0  0  0  0  0  # atno 5224 bound_to 1070
  -12.7834  -22.9553  -30.4495 LP  0  0  0  0  0  0  0  0  0  0  0  0  # atno 5225 bound_to 1070

$$$$
IA_186.cdx|SeH_inactivess_minimized|sdf|86|dock6
  -GOLD-   4172120233D 1   1.00000     0.00000

 22 23  0  0  0  0  0  0  0  0  1 V2000
  -15.9041  -26.0162  -35.4860 C   0  0  0  0  0  0  0  0  0  0  0  0
   -9.8372  -26.7232  -35.3472 C   0  0  0  0  0  0  0  0  0  0  0  0
  -16.7759  -25.4125  -36.3854 C   0  0  0  0  0  0  0  0  0  0  0  0
   -9.7919  -26.1713  -34.0717 C   0  0  0  0  0  0  0  0  0  0  0  0
  -14.5351  -25.8037  -35.6040 C   0  0  0  0  0  0  0  0  0  0  0  0
  -10.7766  -26.2646  -36.2640 C   0  0  0  0  0  0  0  0  0  0  0  0
  -16.2326  -24.6117  -37.3769 C   0  0  0  0  0  0  0  0  0  0  0  0
  -10.7007  -25.1715  -33.7651 C   0  0  0  0  0  0  0  0  0  0  0  0
  -14.0922  -24.9854  -36.6307 C   0  0  0  0  0  0  0  0  0  0  0  0
  -11.6415  -25.2607  -35.8591 C   0  0  0  0  0  0  0  0  0  0  0  0
  -12.6725  -24.7287  -36.8019 C   0  0  0  0  0  0  0  0  0  0  0  0
  -14.9085  -24.3817  -37.5234 N   0  0  0  0  0  0  0  0  0  0  0  0
  -11.6276  -24.7002  -34.6290 N   0  0  0  0  0  0  0  0  0  0  0  0
  -12.2698  -24.0462  -37.7567 O   0  0  0  0  0  0  0  0  0  0  0  0
  -16.2909  -26.6511  -34.6944 H   0  0  0  0  0  0  0  0  0  0  0  0
   -9.1417  -27.5089  -35.6263 H   0  0  0  0  0  0  0  0  0  0  0  0
  -17.8466  -25.5642  -36.3130 H   0  0  0  0  0  0  0  0  0  0  0  0
   -9.0686  -26.5132  -33.3406 H   0  0  0  0  0  0  0  0  0  0  0  0
  -13.8452  -26.2682  -34.9074 H   0  0  0  0  0  0  0  0  0  0  0  0
  -10.8207  -26.6865  -37.2626 H   0  0  0  0  0  0  0  0  0  0  0  0
  -16.8701  -24.1169  -38.1023 H   0  0  0  0  0  0  0  0  0  0  0  0
  -10.7056  -24.7075  -32.7844 H   0  0  0  0  0  0  0  0  0  0  0  0
  1  3  1  0  0  0  0
  1  5  2  0  0  0  0
  2  4  2  0  0  0  0
  2  6  1  0  0  0  0
  3  7  2  0  0  0  0
  4  8  1  0  0  0  0
  5  9  1  0  0  0  0
  6 10  2  0  0  0  0
  7 12  1  0  0  0  0
  8 13  2  0  0  0  0
  9 11  1  0  0  0  0
  9 12  2  0  0  0  0
 10 11  1  0  0  0  0
 10 13  1  0  0  0  0
 11 14  2  0  0  0  0
  1 15  1  0  0  0  0
  2 16  1  0  0  0  0
  3 17  1  0  0  0  0
  4 18  1  0  0  0  0
  5 19  1  0  0  0  0
  6 20  1  0  0  0  0
  7 21  1  0  0  0  0
  8 22  1  0  0  0  0
M  END
> <Name>
IA_186.cdx

> <SourceTag>
IA_186

> <Gold.Version>
5.2

> <Gold.Id.Protein>
6HGV|6HGV_protein|mol2

> <Gold.Goldscore.Fitness>
41.5186

> <Gold.Goldscore.Internal.Vdw>
1.0303

> <Gold.Goldscore.Internal.Torsion>
-5.6920

> <Gold.Goldscore.External.Vdw>
33.0545

> <Gold.Goldscore.Internal.HBond>
0.0000

> <Gold.Goldscore.External.HBond>
0.0272

> <Gold.Goldscore.Internal.Correction>
-0.7031

> <Gold.Goldscore.Hbonds>
donor molecule, donor type, donor heavy atom, donor atom, acceptor molecule, acceptor atom, score
      P1  H  1931  4507       L1    14  0.01

> <Gold.Goldscore.Internal.Vdw.Weighted>
1.0303

> <Gold.Goldscore.Internal.Torsion.Weighted>
-5.6920

> <Gold.Goldscore.External.Vdw.Weighted>
45.4500

> <Gold.Goldscore.Internal.HBond.Weighted>
0.0000

> <Gold.Goldscore.External.HBond.Weighted>
0.0272

> <Gold.Goldscore.Internal.Correction.Weighted>
-0.7031

> <Gold.Protein.RotatedTorsions>
[ 3781 1176 1175 1172 ] final   74.08 input   60.00 | X-H torsion
[ 3847 1247 1246 1244 ] final  152.22 input   60.00 | X-H torsion
[ 4507 1931 1930 1928 ] final  109.59 input   60.00 | X-H torsion
[ 3677 1070 1069 1066 ] final -177.77 input   60.00 | X-H torsion
[ 3525  925  924  922 ] final    9.24 input   59.99 | X-H torsion
[ 4531 1957 1955 1953 ] final   55.15 input   60.00 | X-H torsion

> <Gold.Protein.ActiveResidues>
 PHE267  PRO268  MET310  ASP335  TRP336  MET339  TYR343  THR360  PRO361  ILE363 
 PRO371  SER374  ILE375  ASN378  PHE381  TYR383  GLN384  PHE387  LEU408  LEU417 
 MET419  LEU428  TYR466  MET469  ASN472  ASP496  VAL498  LEU499  MET503  HIS524 
 TRP525 

> <Gold.Protein.RotatedAtoms>
   -3.5048  -29.5756  -30.5911 H   0  0  0  0  0  0  0  0  0  0  0  0  # atno 3525 bound_to 925 
  -11.0904  -22.7976  -31.1890 H   0  0  0  0  0  0  0  0  0  0  0  0  # atno 3677 bound_to 1070
  -10.4524  -37.4022  -32.6100 H   0  0  0  0  0  0  0  0  0  0  0  0  # atno 3781 bound_to 1176
  -14.3985  -27.8001  -37.9207 H   0  0  0  0  0  0  0  0  0  0  0  0  # atno 3847 bound_to 1247
  -12.4317  -24.0302  -39.2173 H   0  0  0  0  0  0  0  0  0  0  0  0  # atno 4507 bound_to 1931
   -3.0767  -33.3388  -36.6617 H   0  0  0  0  0  0  0  0  0  0  0  0  # atno 4531 bound_to 1957
  -10.4173  -36.8084  -34.1246 LP  0  0  0  0  0  0  0  0  0  0  0  0  # atno 5205 bound_to 1176
   -9.2381  -36.4188  -33.0643 LP  0  0  0  0  0  0  0  0  0  0  0  0  # atno 5206 bound_to 1176
  -15.2501  -28.9490  -37.1443 LP  0  0  0  0  0  0  0  0  0  0  0  0  # atno 5215 bound_to 1247
  -15.9215  -27.4899  -37.4389 LP  0  0  0  0  0  0  0  0  0  0  0  0  # atno 5216 bound_to 1247
  -13.3664  -25.3622  -39.2083 LP  0  0  0  0  0  0  0  0  0  0  0  0  # atno 5217 bound_to 1931
  -13.4011  -24.3456  -40.4857 LP  0  0  0  0  0  0  0  0  0  0  0  0  # atno 5218 bound_to 1931
  -12.4147  -22.4161  -30.3236 LP  0  0  0  0  0  0  0  0  0  0  0  0  # atno 5224 bound_to 1070
  -12.3549  -23.8213  -31.1533 LP  0  0  0  0  0  0  0  0  0  0  0  0  # atno 5225 bound_to 1070

$$$$
IA_92.cdx|SeH_inactivess_minimized|sdf|171|dock4
  -GOLD-   41821 8283D 1   1.00000     0.00000

 49 48  0  0  0  0  0  0  0  0  1 V2000
  -18.0622  -25.0402  -36.8884 C   0  0  0  0  0  0  0  0  0  0  0  0
  -15.7592  -25.4239  -36.0483 C   0  0  0  0  0  0  0  0  0  0  0  0
   -3.6209  -32.7381  -32.7598 C   0  0  0  0  0  0  0  0  0  0  0  0
  -18.7859  -24.6358  -38.1476 C   0  0  0  0  0  0  0  0  0  0  0  0
   -3.2456  -32.2030  -34.1326 C   0  0  0  0  0  0  0  0  0  0  0  0
   -4.4850  -31.8247  -34.9449 C   0  0  0  0  0  0  0  0  0  0  0  0
   -5.2389  -30.6624  -34.2952 C   0  0  0  0  0  0  0  0  0  0  0  0
   -6.3393  -30.0770  -35.1852 C   0  0  0  0  0  0  0  0  0  0  0  0
   -7.0936  -28.9141  -34.5351 C   0  0  0  0  0  0  0  0  0  0  0  0
   -8.4303  -28.6627  -35.2385 C   0  0  0  0  0  0  0  0  0  0  0  0
   -9.1351  -27.3867  -34.7692 C   0  0  0  0  0  0  0  0  0  0  0  0
  -10.3377  -27.0026  -35.6340 C   0  0  0  0  0  0  0  0  0  0  0  0
  -10.8363  -25.5949  -35.2963 C   0  0  0  0  0  0  0  0  0  0  0  0
  -12.0233  -25.2004  -36.1806 C   0  0  0  0  0  0  0  0  0  0  0  0
  -13.3303  -25.8812  -35.7703 C   0  0  0  0  0  0  0  0  0  0  0  0
  -16.6798  -25.0968  -37.0545 N   0  0  0  0  0  0  0  0  0  0  0  0
  -14.4652  -25.3930  -36.5441 N   0  0  0  0  0  0  0  0  0  0  0  0
  -18.6642  -25.2682  -35.8409 O   0  0  0  0  0  0  0  0  0  0  0  0
  -16.0594  -25.6988  -34.8875 O   0  0  0  0  0  0  0  0  0  0  0  0
  -18.4839  -22.9124  -38.4180 Cl  0  0  0  0  0  0  0  0  0  0  0  0
   -3.9870  -31.9262  -32.1237 H   0  0  0  0  0  0  0  0  0  0  0  0
   -4.4101  -33.4929  -32.8353 H   0  0  0  0  0  0  0  0  0  0  0  0
   -2.7560  -33.1928  -32.2665 H   0  0  0  0  0  0  0  0  0  0  0  0
  -18.4484  -25.1937  -39.0246 H   0  0  0  0  0  0  0  0  0  0  0  0
  -19.8597  -24.7951  -38.0164 H   0  0  0  0  0  0  0  0  0  0  0  0
   -2.6662  -32.9638  -34.6683 H   0  0  0  0  0  0  0  0  0  0  0  0
   -2.5980  -31.3267  -34.0125 H   0  0  0  0  0  0  0  0  0  0  0  0
   -5.1399  -32.6995  -35.0260 H   0  0  0  0  0  0  0  0  0  0  0  0
   -4.1860  -31.5464  -35.9625 H   0  0  0  0  0  0  0  0  0  0  0  0
   -5.6718  -30.9882  -33.3415 H   0  0  0  0  0  0  0  0  0  0  0  0
   -4.5274  -29.8608  -34.0610 H   0  0  0  0  0  0  0  0  0  0  0  0
   -7.0460  -30.8682  -35.4638 H   0  0  0  0  0  0  0  0  0  0  0  0
   -5.8751  -29.7265  -36.1156 H   0  0  0  0  0  0  0  0  0  0  0  0
   -7.2806  -29.1320  -33.4780 H   0  0  0  0  0  0  0  0  0  0  0  0
   -6.4708  -28.0140  -34.5800 H   0  0  0  0  0  0  0  0  0  0  0  0
   -8.2757  -28.6187  -36.3235 H   0  0  0  0  0  0  0  0  0  0  0  0
   -9.0992  -29.5114  -35.0490 H   0  0  0  0  0  0  0  0  0  0  0  0
   -8.4169  -26.5580  -34.7440 H   0  0  0  0  0  0  0  0  0  0  0  0
   -9.4721  -27.5433  -33.7369 H   0  0  0  0  0  0  0  0  0  0  0  0
  -11.1474  -27.7259  -35.4794 H   0  0  0  0  0  0  0  0  0  0  0  0
  -10.0653  -27.0400  -36.6946 H   0  0  0  0  0  0  0  0  0  0  0  0
  -11.1364  -25.5549  -34.2421 H   0  0  0  0  0  0  0  0  0  0  0  0
  -10.0154  -24.8802  -35.4273 H   0  0  0  0  0  0  0  0  0  0  0  0
  -12.1515  -24.1108  -36.1633 H   0  0  0  0  0  0  0  0  0  0  0  0
  -11.8039  -25.4741  -37.2203 H   0  0  0  0  0  0  0  0  0  0  0  0
  -13.2353  -26.9622  -35.9205 H   0  0  0  0  0  0  0  0  0  0  0  0
  -13.5213  -25.7140  -34.7049 H   0  0  0  0  0  0  0  0  0  0  0  0
  -16.3099  -24.8845  -37.9769 H   0  0  0  0  0  0  0  0  0  0  0  0
  -14.2887  -25.0625  -37.4804 H   0  0  0  0  0  0  0  0  0  0  0  0
  1  4  1  0  0  0  0
  1 16  1  0  0  0  0
  1 18  2  0  0  0  0
  2 16  1  0  0  0  0
  2 17  1  0  0  0  0
  2 19  2  0  0  0  0
  3  5  1  0  0  0  0
  4 20  1  0  0  0  0
  5  6  1  0  0  0  0
  6  7  1  0  0  0  0
  7  8  1  0  0  0  0
  8  9  1  0  0  0  0
  9 10  1  0  0  0  0
 10 11  1  0  0  0  0
 11 12  1  0  0  0  0
 12 13  1  0  0  0  0
 13 14  1  0  0  0  0
 14 15  1  0  0  0  0
 15 17  1  0  0  0  0
  3 21  1  0  0  0  0
  3 22  1  0  0  0  0
  3 23  1  0  0  0  0
  4 24  1  0  0  0  0
  4 25  1  0  0  0  0
  5 26  1  0  0  0  0
  5 27  1  0  0  0  0
  6 28  1  0  0  0  0
  6 29  1  0  0  0  0
  7 30  1  0  0  0  0
  7 31  1  0  0  0  0
  8 32  1  0  0  0  0
  8 33  1  0  0  0  0
  9 34  1  0  0  0  0
  9 35  1  0  0  0  0
 10 36  1  0  0  0  0
 10 37  1  0  0  0  0
 11 38  1  0  0  0  0
 11 39  1  0  0  0  0
 12 40  1  0  0  0  0
 12 41  1  0  0  0  0
 13 42  1  0  0  0  0
 13 43  1  0  0  0  0
 14 44  1  0  0  0  0
 14 45  1  0  0  0  0
 15 46  1  0  0  0  0
 15 47  1  0  0  0  0
 16 48  1  0  0  0  0
 17 49  1  0  0  0  0
M  END
> <Name>
IA_92.cdx

> <SourceTag>
IA_92

> <Gold.Version>
5.2

> <Gold.Id.Protein>
6HGV|6HGV_protein|mol2

> <Gold.Goldscore.Fitness>
64.3283

> <Gold.Goldscore.Internal.Vdw>
-9.8524

> <Gold.Goldscore.Internal.Torsion>
-4.2848

> <Gold.Goldscore.External.Vdw>
49.4677

> <Gold.Goldscore.Internal.HBond>
0.0000

> <Gold.Goldscore.External.HBond>
0.4139

> <Gold.Goldscore.Internal.Correction>
-10.0336

> <Gold.Goldscore.Hbonds>
donor molecule, donor type, donor heavy atom, donor atom, acceptor molecule, acceptor atom, score
      L1  H    17    49       P1  1931  0.21

> <Gold.Goldscore.Internal.Vdw.Weighted>
-9.8524

> <Gold.Goldscore.Internal.Torsion.Weighted>
-4.2848

> <Gold.Goldscore.External.Vdw.Weighted>
68.0181

> <Gold.Goldscore.Internal.HBond.Weighted>
0.0000

> <Gold.Goldscore.External.HBond.Weighted>
0.4139

> <Gold.Goldscore.Internal.Correction.Weighted>
-10.0336

> <Gold.Protein.RotatedTorsions>
[ 3781 1176 1175 1172 ] final  -21.46 input   60.00 | X-H torsion
[ 3847 1247 1246 1244 ] final  -56.53 input   60.00 | X-H torsion
[ 4507 1931 1930 1928 ] final  107.67 input   60.00 | X-H torsion
[ 3677 1070 1069 1066 ] final -102.78 input   60.00 | X-H torsion
[ 3525  925  924  922 ] final   22.31 input   59.99 | X-H torsion
[ 4531 1957 1955 1953 ] final  -77.55 input   60.00 | X-H torsion

> <Gold.Protein.ActiveResidues>
 PHE267  PRO268  MET310  ASP335  TRP336  MET339  TYR343  THR360  PRO361  ILE363 
 PRO371  SER374  ILE375  ASN378  PHE381  TYR383  GLN384  PHE387  LEU408  LEU417 
 MET419  LEU428  TYR466  MET469  ASN472  ASP496  VAL498  LEU499  MET503  HIS524 
 TRP525 

> <Gold.Protein.RotatedAtoms>
   -3.3486  -29.6314  -30.7249 H   0  0  0  0  0  0  0  0  0  0  0  0  # atno 3525 bound_to 925 
  -11.6948  -23.7345  -31.4255 H   0  0  0  0  0  0  0  0  0  0  0  0  # atno 3677 bound_to 1070
  -10.6688  -37.0508  -33.9336 H   0  0  0  0  0  0  0  0  0  0  0  0  # atno 3781 bound_to 1176
  -16.0666  -27.9221  -37.2193 H   0  0  0  0  0  0  0  0  0  0  0  0  # atno 3847 bound_to 1247
  -12.4314  -24.0500  -39.1930 H   0  0  0  0  0  0  0  0  0  0  0  0  # atno 4507 bound_to 1931
   -1.7181  -32.3197  -36.9024 H   0  0  0  0  0  0  0  0  0  0  0  0  # atno 4531 bound_to 1957
   -9.3004  -36.3176  -33.4457 LP  0  0  0  0  0  0  0  0  0  0  0  0  # atno 5205 bound_to 1176
  -10.1371  -37.2635  -32.4104 LP  0  0  0  0  0  0  0  0  0  0  0  0  # atno 5206 bound_to 1176
  -14.7085  -27.4013  -37.9489 LP  0  0  0  0  0  0  0  0  0  0  0  0  # atno 5215 bound_to 1247
  -14.7831  -28.9149  -37.3406 LP  0  0  0  0  0  0  0  0  0  0  0  0  # atno 5216 bound_to 1247
  -13.3850  -25.3680  -39.2331 LP  0  0  0  0  0  0  0  0  0  0  0  0  # atno 5217 bound_to 1931
  -13.3828  -24.3199  -40.4853 LP  0  0  0  0  0  0  0  0  0  0  0  0  # atno 5218 bound_to 1931
  -11.3637  -22.2844  -30.7654 LP  0  0  0  0  0  0  0  0  0  0  0  0  # atno 5224 bound_to 1070
  -12.7974  -23.0094  -30.4734 LP  0  0  0  0  0  0  0  0  0  0  0  0  # atno 5225 bound_to 1070

$$$$
IA_167.cdx|SeH_inactivess_minimized|sdf|69|dock4
  -GOLD-   4172120 83D 1   1.00000     0.00000

 28 29  0  0  0  0  0  0  0  0  1 V2000
  -18.5761  -23.8531  -37.5604 C   0  0  0  0  0  0  0  0  0  0  0  0
   -9.0249  -26.8464  -34.7018 C   0  0  0  0  0  0  0  0  0  0  0  0
  -17.6543  -22.9655  -38.1152 C   0  0  0  0  0  0  0  0  0  0  0  0
  -18.1389  -25.0541  -37.0018 C   0  0  0  0  0  0  0  0  0  0  0  0
   -9.4349  -27.5325  -35.8448 C   0  0  0  0  0  0  0  0  0  0  0  0
   -9.7110  -25.7036  -34.2906 C   0  0  0  0  0  0  0  0  0  0  0  0
  -16.2951  -23.2788  -38.1116 C   0  0  0  0  0  0  0  0  0  0  0  0
  -16.7797  -25.3676  -36.9982 C   0  0  0  0  0  0  0  0  0  0  0  0
  -10.5311  -27.0761  -36.5767 C   0  0  0  0  0  0  0  0  0  0  0  0
  -10.8073  -25.2471  -35.0223 C   0  0  0  0  0  0  0  0  0  0  0  0
  -15.8578  -24.4799  -37.5531 C   0  0  0  0  0  0  0  0  0  0  0  0
  -11.2174  -25.9333  -36.1655 C   0  0  0  0  0  0  0  0  0  0  0  0
  -13.6495  -25.2697  -36.5413 C   0  0  0  0  0  0  0  0  0  0  0  0
  -14.4981  -24.7932  -37.5494 N   0  0  0  0  0  0  0  0  0  0  0  0
  -12.3313  -25.4697  -36.9092 N   0  0  0  0  0  0  0  0  0  0  0  0
  -14.3535  -25.6720  -35.0638 S   0  0  0  0  0  0  0  0  0  0  0  0
  -19.6345  -23.6090  -37.5623 H   0  0  0  0  0  0  0  0  0  0  0  0
   -8.1718  -27.2019  -34.1313 H   0  0  0  0  0  0  0  0  0  0  0  0
  -17.9943  -22.0298  -38.5493 H   0  0  0  0  0  0  0  0  0  0  0  0
  -18.8569  -25.7447  -36.5690 H   0  0  0  0  0  0  0  0  0  0  0  0
   -8.9015  -28.4227  -36.1649 H   0  0  0  0  0  0  0  0  0  0  0  0
   -9.3921  -25.1701  -33.3998 H   0  0  0  0  0  0  0  0  0  0  0  0
  -15.5858  -22.5793  -38.5467 H   0  0  0  0  0  0  0  0  0  0  0  0
  -16.4504  -26.3065  -36.5600 H   0  0  0  0  0  0  0  0  0  0  0  0
  -10.8417  -27.6191  -37.4658 H   0  0  0  0  0  0  0  0  0  0  0  0
  -11.3344  -24.3555  -34.6923 H   0  0  0  0  0  0  0  0  0  0  0  0
  -14.0186  -24.6893  -38.4519 H   0  0  0  0  0  0  0  0  0  0  0  0
  -12.1446  -25.3566  -37.9025 H   0  0  0  0  0  0  0  0  0  0  0  0
  1  3  1  0  0  0  0
  1  4  2  0  0  0  0
  2  5  2  0  0  0  0
  2  6  1  0  0  0  0
  3  7  2  0  0  0  0
  4  8  1  0  0  0  0
  5  9  1  0  0  0  0
  6 10  2  0  0  0  0
  7 11  1  0  0  0  0
  8 11  2  0  0  0  0
  9 12  2  0  0  0  0
 10 12  1  0  0  0  0
 11 14  1  0  0  0  0
 12 15  1  0  0  0  0
 13 14  1  0  0  0  0
 13 15  1  0  0  0  0
 13 16  2  0  0  0  0
  1 17  1  0  0  0  0
  2 18  1  0  0  0  0
  3 19  1  0  0  0  0
  4 20  1  0  0  0  0
  5 21  1  0  0  0  0
  6 22  1  0  0  0  0
  7 23  1  0  0  0  0
  8 24  1  0  0  0  0
  9 25  1  0  0  0  0
 10 26  1  0  0  0  0
 14 27  1  0  0  0  0
 15 28  1  0  0  0  0
M  END
> <Name>
IA_167.cdx

> <SourceTag>
IA_167

> <Gold.Version>
5.2

> <Gold.Id.Protein>
6HGV|6HGV_protein|mol2

> <Gold.Goldscore.Fitness>
57.6147

> <Gold.Goldscore.Internal.Vdw>
0.8936

> <Gold.Goldscore.Internal.Torsion>
-7.9066

> <Gold.Goldscore.External.Vdw>
41.5928

> <Gold.Goldscore.Internal.HBond>
0.0000

> <Gold.Goldscore.External.HBond>
2.6778

> <Gold.Goldscore.Internal.Correction>
-4.7598

> <Gold.Goldscore.Hbonds>
donor molecule, donor type, donor heavy atom, donor atom, acceptor molecule, acceptor atom, score
      L1  H    14    27       P1  1931  0.98
      L1  H    15    28       P1  1931  0.36

> <Gold.Goldscore.Internal.Vdw.Weighted>
0.8936

> <Gold.Goldscore.Internal.Torsion.Weighted>
-7.9066

> <Gold.Goldscore.External.Vdw.Weighted>
57.1901

> <Gold.Goldscore.Internal.HBond.Weighted>
0.0000

> <Gold.Goldscore.External.HBond.Weighted>
2.6778

> <Gold.Goldscore.Internal.Correction.Weighted>
-4.7598

> <Gold.Protein.RotatedTorsions>
[ 3781 1176 1175 1172 ] final   41.11 input   60.00 | X-H torsion
[ 3847 1247 1246 1244 ] final  162.68 input   60.00 | X-H torsion
[ 4507 1931 1930 1928 ] final  172.06 input   60.00 | X-H torsion
[ 3677 1070 1069 1066 ] final -104.34 input   60.00 | X-H torsion
[ 3525  925  924  922 ] final  159.86 input   59.99 | X-H torsion
[ 4531 1957 1955 1953 ] final  -32.01 input   60.00 | X-H torsion

> <Gold.Protein.ActiveResidues>
 PHE267  PRO268  MET310  ASP335  TRP336  MET339  TYR343  THR360  PRO361  ILE363 
 PRO371  SER374  ILE375  ASN378  PHE381  TYR383  GLN384  PHE387  LEU408  LEU417 
 MET419  LEU428  TYR466  MET469  ASN472  ASP496  VAL498  LEU499  MET503  HIS524 
 TRP525 

> <Gold.Protein.RotatedAtoms>
   -2.0930  -30.2729  -29.6961 H   0  0  0  0  0  0  0  0  0  0  0  0  # atno 3525 bound_to 925 
  -11.6725  -23.7229  -31.4298 H   0  0  0  0  0  0  0  0  0  0  0  0  # atno 3677 bound_to 1070
  -10.7533  -37.4395  -33.0463 H   0  0  0  0  0  0  0  0  0  0  0  0  # atno 3781 bound_to 1176
  -14.4814  -27.6530  -37.9444 H   0  0  0  0  0  0  0  0  0  0  0  0  # atno 3847 bound_to 1247
  -12.7893  -23.8084  -40.0923 H   0  0  0  0  0  0  0  0  0  0  0  0  # atno 4507 bound_to 1931
   -2.4243  -32.2298  -36.7666 H   0  0  0  0  0  0  0  0  0  0  0  0  # atno 4531 bound_to 1957
   -9.9732  -36.5099  -34.1306 LP  0  0  0  0  0  0  0  0  0  0  0  0  # atno 5205 bound_to 1176
   -9.3791  -36.6797  -32.6190 LP  0  0  0  0  0  0  0  0  0  0  0  0  # atno 5206 bound_to 1176
  -15.0888  -28.9668  -37.2007 LP  0  0  0  0  0  0  0  0  0  0  0  0  # atno 5215 bound_to 1247
  -15.9992  -27.6203  -37.3585 LP  0  0  0  0  0  0  0  0  0  0  0  0  # atno 5216 bound_to 1247
  -12.7069  -24.7762  -38.7867 LP  0  0  0  0  0  0  0  0  0  0  0  0  # atno 5217 bound_to 1931
  -13.7006  -25.1550  -40.0260 LP  0  0  0  0  0  0  0  0  0  0  0  0  # atno 5218 bound_to 1931
  -11.3812  -22.2732  -30.7504 LP  0  0  0  0  0  0  0  0  0  0  0  0  # atno 5224 bound_to 1070
  -12.8023  -23.0323  -30.4840 LP  0  0  0  0  0  0  0  0  0  0  0  0  # atno 5225 bound_to 1070

$$$$
IA_87.cdx|SeH_inactivess_minimized|sdf|165|dock2
  -GOLD-   4172122293D 1   1.00000     0.00000

 50 49  0  0  0  0  0  0  0  0  1 V2000
   -8.0207  -29.4807  -35.0069 C   0  0  0  0  0  0  0  0  0  0  0  0
  -20.5305  -23.6974  -37.7413 C   0  0  0  0  0  0  0  0  0  0  0  0
   -3.8921  -32.2696  -35.0632 C   0  0  0  0  0  0  0  0  0  0  0  0
  -19.6040  -24.6373  -36.9850 C   0  0  0  0  0  0  0  0  0  0  0  0
   -4.5724  -30.9081  -35.0499 C   0  0  0  0  0  0  0  0  0  0  0  0
  -18.1464  -24.4377  -37.4024 C   0  0  0  0  0  0  0  0  0  0  0  0
  -17.1513  -25.2036  -36.5256 C   0  0  0  0  0  0  0  0  0  0  0  0
  -15.6984  -25.0557  -36.9825 C   0  0  0  0  0  0  0  0  0  0  0  0
  -14.7364  -25.7142  -35.9909 C   0  0  0  0  0  0  0  0  0  0  0  0
  -13.2785  -25.4721  -36.3856 C   0  0  0  0  0  0  0  0  0  0  0  0
  -12.3210  -25.9236  -35.2814 C   0  0  0  0  0  0  0  0  0  0  0  0
  -10.8957  -25.4343  -35.5462 C   0  0  0  0  0  0  0  0  0  0  0  0
   -9.8793  -26.1969  -34.6912 C   0  0  0  0  0  0  0  0  0  0  0  0
   -6.0581  -30.9953  -34.7216 C   0  0  0  0  0  0  0  0  0  0  0  0
   -9.6908  -27.6386  -35.1518 C   0  0  0  0  0  0  0  0  0  0  0  0
   -6.6871  -29.6958  -34.6692 N   0  0  0  0  0  0  0  0  0  0  0  0
   -8.3731  -28.1365  -34.8685 N   0  0  0  0  0  0  0  0  0  0  0  0
   -8.7950  -30.3609  -35.3800 O   0  0  0  0  0  0  0  0  0  0  0  0
  -20.4173  -22.6740  -37.3702 H   0  0  0  0  0  0  0  0  0  0  0  0
  -21.5772  -23.9909  -37.6135 H   0  0  0  0  0  0  0  0  0  0  0  0
  -20.3013  -23.6982  -38.8118 H   0  0  0  0  0  0  0  0  0  0  0  0
   -4.0107  -32.7768  -34.1005 H   0  0  0  0  0  0  0  0  0  0  0  0
   -4.3355  -32.9046  -35.8370 H   0  0  0  0  0  0  0  0  0  0  0  0
   -2.8224  -32.1791  -35.2760 H   0  0  0  0  0  0  0  0  0  0  0  0
  -19.7215  -24.4548  -35.9116 H   0  0  0  0  0  0  0  0  0  0  0  0
  -19.9085  -25.6728  -37.1762 H   0  0  0  0  0  0  0  0  0  0  0  0
   -4.4545  -30.4479  -36.0378 H   0  0  0  0  0  0  0  0  0  0  0  0
   -4.0646  -30.2588  -34.3269 H   0  0  0  0  0  0  0  0  0  0  0  0
  -18.0210  -24.7782  -38.4378 H   0  0  0  0  0  0  0  0  0  0  0  0
  -17.9004  -23.3688  -37.3904 H   0  0  0  0  0  0  0  0  0  0  0  0
  -17.4263  -26.2656  -36.5457 H   0  0  0  0  0  0  0  0  0  0  0  0
  -17.2480  -24.8725  -35.4844 H   0  0  0  0  0  0  0  0  0  0  0  0
  -15.5753  -25.5126  -37.9718 H   0  0  0  0  0  0  0  0  0  0  0  0
  -15.4409  -23.9951  -37.0790 H   0  0  0  0  0  0  0  0  0  0  0  0
  -14.9311  -26.7929  -35.9504 H   0  0  0  0  0  0  0  0  0  0  0  0
  -14.9161  -25.3149  -34.9852 H   0  0  0  0  0  0  0  0  0  0  0  0
  -13.0536  -26.0149  -37.3117 H   0  0  0  0  0  0  0  0  0  0  0  0
  -13.1257  -24.4055  -36.5904 H   0  0  0  0  0  0  0  0  0  0  0  0
  -12.3269  -27.0184  -35.2148 H   0  0  0  0  0  0  0  0  0  0  0  0
  -12.6680  -25.5388  -34.3148 H   0  0  0  0  0  0  0  0  0  0  0  0
  -10.8291  -24.3620  -35.3255 H   0  0  0  0  0  0  0  0  0  0  0  0
  -10.6603  -25.5615  -36.6094 H   0  0  0  0  0  0  0  0  0  0  0  0
   -8.9108  -25.6849  -34.7435 H   0  0  0  0  0  0  0  0  0  0  0  0
  -10.1971  -26.1816  -33.6413 H   0  0  0  0  0  0  0  0  0  0  0  0
   -6.5788  -31.5719  -35.4927 H   0  0  0  0  0  0  0  0  0  0  0  0
   -6.2239  -31.4872  -33.7580 H   0  0  0  0  0  0  0  0  0  0  0  0
  -10.4125  -28.3071  -34.6720 H   0  0  0  0  0  0  0  0  0  0  0  0
   -9.8316  -27.7065  -36.2352 H   0  0  0  0  0  0  0  0  0  0  0  0
   -6.1299  -28.9011  -34.3716 H   0  0  0  0  0  0  0  0  0  0  0  0
   -7.6732  -27.4902  -34.5080 H   0  0  0  0  0  0  0  0  0  0  0  0
  1 16  1  0  0  0  0
  1 17  1  0  0  0  0
  1 18  2  0  0  0  0
  2  4  1  0  0  0  0
  3  5  1  0  0  0  0
  4  6  1  0  0  0  0
  5 14  1  0  0  0  0
  6  7  1  0  0  0  0
  7  8  1  0  0  0  0
  8  9  1  0  0  0  0
  9 10  1  0  0  0  0
 10 11  1  0  0  0  0
 11 12  1  0  0  0  0
 12 13  1  0  0  0  0
 13 15  1  0  0  0  0
 14 16  1  0  0  0  0
 15 17  1  0  0  0  0
  2 19  1  0  0  0  0
  2 20  1  0  0  0  0
  2 21  1  0  0  0  0
  3 22  1  0  0  0  0
  3 23  1  0  0  0  0
  3 24  1  0  0  0  0
  4 25  1  0  0  0  0
  4 26  1  0  0  0  0
  5 27  1  0  0  0  0
  5 28  1  0  0  0  0
  6 29  1  0  0  0  0
  6 30  1  0  0  0  0
  7 31  1  0  0  0  0
  7 32  1  0  0  0  0
  8 33  1  0  0  0  0
  8 34  1  0  0  0  0
  9 35  1  0  0  0  0
  9 36  1  0  0  0  0
 10 37  1  0  0  0  0
 10 38  1  0  0  0  0
 11 39  1  0  0  0  0
 11 40  1  0  0  0  0
 12 41  1  0  0  0  0
 12 42  1  0  0  0  0
 13 43  1  0  0  0  0
 13 44  1  0  0  0  0
 14 45  1  0  0  0  0
 14 46  1  0  0  0  0
 15 47  1  0  0  0  0
 15 48  1  0  0  0  0
 16 49  1  0  0  0  0
 17 50  1  0  0  0  0
M  END
> <Name>
IA_87.cdx

> <SourceTag>
IA_87

> <Gold.Version>
5.2

> <Gold.Id.Protein>
6HGV|6HGV_protein|mol2

> <Gold.Goldscore.Fitness>
63.9202

> <Gold.Goldscore.Internal.Vdw>
-7.5006

> <Gold.Goldscore.Internal.Torsion>
-4.3988

> <Gold.Goldscore.External.Vdw>
49.4375

> <Gold.Goldscore.Internal.HBond>
0.0000

> <Gold.Goldscore.External.HBond>
0.0000

> <Gold.Goldscore.Internal.Correction>
-7.8430

> <Gold.Goldscore.Internal.Vdw.Weighted>
-7.5006

> <Gold.Goldscore.Internal.Torsion.Weighted>
-4.3988

> <Gold.Goldscore.External.Vdw.Weighted>
67.9766

> <Gold.Goldscore.Internal.HBond.Weighted>
0.0000

> <Gold.Goldscore.External.HBond.Weighted>
0.0000

> <Gold.Goldscore.Internal.Correction.Weighted>
-7.8430

> <Gold.Protein.RotatedTorsions>
[ 3781 1176 1175 1172 ] final  -52.37 input   60.00 | X-H torsion
[ 3847 1247 1246 1244 ] final  105.51 input   60.00 | X-H torsion
[ 4507 1931 1930 1928 ] final  -54.57 input   60.00 | X-H torsion
[ 3677 1070 1069 1066 ] final -104.29 input   60.00 | X-H torsion
[ 3525  925  924  922 ] final   32.89 input   59.99 | X-H torsion
[ 4531 1957 1955 1953 ] final  142.53 input   60.00 | X-H torsion

> <Gold.Protein.ActiveResidues>
 PHE267  PRO268  MET310  ASP335  TRP336  MET339  TYR343  THR360  PRO361  ILE363 
 PRO371  SER374  ILE375  ASN378  PHE381  TYR383  GLN384  PHE387  LEU408  LEU417 
 MET419  LEU428  TYR466  MET469  ASN472  ASP496  VAL498  LEU499  MET503  HIS524 
 TRP525 

> <Gold.Protein.RotatedAtoms>
   -3.2052  -29.6867  -30.8036 H   0  0  0  0  0  0  0  0  0  0  0  0  # atno 3525 bound_to 925 
  -11.6732  -23.7233  -31.4297 H   0  0  0  0  0  0  0  0  0  0  0  0  # atno 3677 bound_to 1070
  -10.3324  -36.7477  -34.1436 H   0  0  0  0  0  0  0  0  0  0  0  0  # atno 3781 bound_to 1176
  -14.3667  -28.4970  -37.6666 H   0  0  0  0  0  0  0  0  0  0  0  0  # atno 3847 bound_to 1247
  -13.6664  -25.2658  -39.8404 H   0  0  0  0  0  0  0  0  0  0  0  0  # atno 4507 bound_to 1931
   -2.0194  -34.0527  -36.8751 H   0  0  0  0  0  0  0  0  0  0  0  0  # atno 4531 bound_to 1957
   -9.2457  -36.4604  -32.9669 LP  0  0  0  0  0  0  0  0  0  0  0  0  # atno 5205 bound_to 1176
  -10.5305  -37.4259  -32.6777 LP  0  0  0  0  0  0  0  0  0  0  0  0  # atno 5206 bound_to 1176
  -15.8733  -28.5462  -37.0537 LP  0  0  0  0  0  0  0  0  0  0  0  0  # atno 5215 bound_to 1247
  -15.3302  -27.1910  -37.7853 LP  0  0  0  0  0  0  0  0  0  0  0  0  # atno 5216 bound_to 1247
  -12.9292  -23.8733  -40.2475 LP  0  0  0  0  0  0  0  0  0  0  0  0  # atno 5217 bound_to 1931
  -12.5949  -24.5902  -38.8189 LP  0  0  0  0  0  0  0  0  0  0  0  0  # atno 5218 bound_to 1931
  -11.3806  -22.2736  -30.7509 LP  0  0  0  0  0  0  0  0  0  0  0  0  # atno 5224 bound_to 1070
  -12.8022  -23.0315  -30.4836 LP  0  0  0  0  0  0  0  0  0  0  0  0  # atno 5225 bound_to 1070

$$$$
IA_107.cdx|SeH_inactivess_minimized|sdf|9|dock1
  -GOLD-   4172118443D 1   1.00000     0.00000

 27 27  0  0  0  0  0  0  0  0  1 V2000
  -14.4741  -26.4250  -35.6496 C   0  0  0  0  0  0  0  0  0  0  0  0
  -10.1340  -26.0563  -33.6144 C   0  0  0  0  0  0  0  0  0  0  0  0
  -10.2690  -25.2517  -34.9044 C   0  0  0  0  0  0  0  0  0  0  0  0
  -11.4134  -26.8197  -33.2827 C   0  0  0  0  0  0  0  0  0  0  0  0
  -10.7243  -26.1301  -36.0705 C   0  0  0  0  0  0  0  0  0  0  0  0
  -11.8658  -27.6947  -34.4525 C   0  0  0  0  0  0  0  0  0  0  0  0
  -12.0101  -26.9090  -35.7627 C   0  0  0  0  0  0  0  0  0  0  0  0
  -16.7885  -25.5130  -35.5245 C   0  0  0  0  0  0  0  0  0  0  0  0
  -13.1504  -25.9934  -35.6818 N   0  0  0  0  0  0  0  0  0  0  0  0
  -15.3546  -25.3489  -35.5719 N   0  0  0  0  0  0  0  0  0  0  0  0
  -14.8223  -27.6045  -35.6845 O   0  0  0  0  0  0  0  0  0  0  0  0
   -9.2977  -26.7602  -33.7049 H   0  0  0  0  0  0  0  0  0  0  0  0
   -9.8898  -25.3780  -32.7861 H   0  0  0  0  0  0  0  0  0  0  0  0
  -10.9851  -24.4360  -34.7572 H   0  0  0  0  0  0  0  0  0  0  0  0
   -9.3046  -24.7914  -35.1508 H   0  0  0  0  0  0  0  0  0  0  0  0
  -11.2453  -27.4495  -32.4010 H   0  0  0  0  0  0  0  0  0  0  0  0
  -12.2084  -26.1120  -33.0241 H   0  0  0  0  0  0  0  0  0  0  0  0
  -10.8750  -25.4999  -36.9645 H   0  0  0  0  0  0  0  0  0  0  0  0
   -9.9154  -26.8316  -36.3355 H   0  0  0  0  0  0  0  0  0  0  0  0
  -11.1478  -28.5211  -34.5884 H   0  0  0  0  0  0  0  0  0  0  0  0
  -12.8266  -28.1754  -34.1982 H   0  0  0  0  0  0  0  0  0  0  0  0
  -12.2301  -27.5924  -36.5789 H   0  0  0  0  0  0  0  0  0  0  0  0
  -17.1008  -26.2918  -36.2249 H   0  0  0  0  0  0  0  0  0  0  0  0
  -17.2851  -24.5770  -35.7947 H   0  0  0  0  0  0  0  0  0  0  0  0
  -17.1032  -25.7986  -34.5172 H   0  0  0  0  0  0  0  0  0  0  0  0
  -12.9668  -24.9951  -35.6475 H   0  0  0  0  0  0  0  0  0  0  0  0
  -14.9745  -24.4103  -35.5009 H   0  0  0  0  0  0  0  0  0  0  0  0
  1  9  1  0  0  0  0
  1 10  1  0  0  0  0
  1 11  2  0  0  0  0
  2  3  1  0  0  0  0
  2  4  1  0  0  0  0
  3  5  1  0  0  0  0
  4  6  1  0  0  0  0
  5  7  1  0  0  0  0
  6  7  1  0  0  0  0
  7  9  1  0  0  0  0
  8 10  1  0  0  0  0
  2 12  1  0  0  0  0
  2 13  1  0  0  0  0
  3 14  1  0  0  0  0
  3 15  1  0  0  0  0
  4 16  1  0  0  0  0
  4 17  1  0  0  0  0
  5 18  1  0  0  0  0
  5 19  1  0  0  0  0
  6 20  1  0  0  0  0
  6 21  1  0  0  0  0
  7 22  1  0  0  0  0
  8 23  1  0  0  0  0
  8 24  1  0  0  0  0
  8 25  1  0  0  0  0
  9 26  1  0  0  0  0
 10 27  1  0  0  0  0
M  END
> <Name>
IA_107.cdx

> <SourceTag>
IA_107

> <Gold.Version>
5.2

> <Gold.Id.Protein>
6HGV|6HGV_protein|mol2

> <Gold.Goldscore.Fitness>
40.7419

> <Gold.Goldscore.Internal.Vdw>
-0.8544

> <Gold.Goldscore.Internal.Torsion>
-1.1593

> <Gold.Goldscore.External.Vdw>
26.6778

> <Gold.Goldscore.Internal.HBond>
0.0000

> <Gold.Goldscore.External.HBond>
4.0774

> <Gold.Goldscore.Internal.Correction>
-1.9963

> <Gold.Goldscore.Hbonds>
donor molecule, donor type, donor heavy atom, donor atom, acceptor molecule, acceptor atom, score
      L1  H     9    26       P1   853  0.09
      L1  H    10    27       P1   853  0.59

> <Gold.Goldscore.Internal.Vdw.Weighted>
-0.8544

> <Gold.Goldscore.Internal.Torsion.Weighted>
-1.1593

> <Gold.Goldscore.External.Vdw.Weighted>
36.6819

> <Gold.Goldscore.Internal.HBond.Weighted>
0.0000

> <Gold.Goldscore.External.HBond.Weighted>
4.0774

> <Gold.Goldscore.Internal.Correction.Weighted>
-1.9963

> <Gold.Protein.RotatedTorsions>
[ 3781 1176 1175 1172 ] final  125.57 input   60.00 | X-H torsion
[ 3847 1247 1246 1244 ] final  139.14 input   60.00 | X-H torsion
[ 4507 1931 1930 1928 ] final   33.00 input   60.00 | X-H torsion
[ 3677 1070 1069 1066 ] final -106.92 input   60.00 | X-H torsion
[ 3525  925  924  922 ] final  123.44 input   59.99 | X-H torsion
[ 4531 1957 1955 1953 ] final  -89.23 input   60.00 | X-H torsion

> <Gold.Protein.ActiveResidues>
 PHE267  PRO268  MET310  ASP335  TRP336  MET339  TYR343  THR360  PRO361  ILE363 
 PRO371  SER374  ILE375  ASN378  PHE381  TYR383  GLN384  PHE387  LEU408  LEU417 
 MET419  LEU428  TYR466  MET469  ASN472  ASP496  VAL498  LEU499  MET503  HIS524 
 TRP525 

> <Gold.Protein.RotatedAtoms>
   -2.1032  -30.2152  -30.2783 H   0  0  0  0  0  0  0  0  0  0  0  0  # atno 3525 bound_to 925 
  -11.6361  -23.7027  -31.4362 H   0  0  0  0  0  0  0  0  0  0  0  0  # atno 3677 bound_to 1070
   -9.7664  -37.0300  -32.3816 H   0  0  0  0  0  0  0  0  0  0  0  0  # atno 3781 bound_to 1176
  -14.3318  -27.9968  -37.8716 H   0  0  0  0  0  0  0  0  0  0  0  0  # atno 3847 bound_to 1247
  -12.8978  -25.0186  -38.8271 H   0  0  0  0  0  0  0  0  0  0  0  0  # atno 4507 bound_to 1931
   -1.5665  -32.4310  -36.9332 H   0  0  0  0  0  0  0  0  0  0  0  0  # atno 4531 bound_to 1957
  -10.8244  -37.2793  -33.5925 LP  0  0  0  0  0  0  0  0  0  0  0  0  # atno 5205 bound_to 1176
   -9.5219  -36.3227  -33.8265 LP  0  0  0  0  0  0  0  0  0  0  0  0  # atno 5206 bound_to 1176
  -15.4484  -28.8862  -37.0904 LP  0  0  0  0  0  0  0  0  0  0  0  0  # atno 5215 bound_to 1247
  -15.7903  -27.3547  -37.5421 LP  0  0  0  0  0  0  0  0  0  0  0  0  # atno 5216 bound_to 1247
  -13.6812  -24.9396  -40.2512 LP  0  0  0  0  0  0  0  0  0  0  0  0  # atno 5217 bound_to 1931
  -12.6169  -23.7729  -39.8357 LP  0  0  0  0  0  0  0  0  0  0  0  0  # atno 5218 bound_to 1931
  -11.4112  -22.2560  -30.7258 LP  0  0  0  0  0  0  0  0  0  0  0  0  # atno 5224 bound_to 1070
  -12.8090  -23.0700  -30.5022 LP  0  0  0  0  0  0  0  0  0  0  0  0  # atno 5225 bound_to 1070

$$$$
IA_23|SeH_inactivess_minimized|sdf|112|dock2
  -GOLD-   4172121 23D 1   1.00000     0.00000

 69 71  0  0  0  0  0  0  0  0  1 V2000
  -14.9994  -25.3934  -36.6801 C   0  0  0  0  0  0  0  0  0  0  0  0
  -17.9713  -25.7987  -37.8590 C   0  0  0  0  0  0  0  0  0  0  0  0
   -7.5910  -28.8715  -34.2493 C   0  0  0  0  0  0  0  0  0  0  0  0
   -4.6089  -32.6898  -32.1244 C   0  0  0  0  0  0  0  0  0  0  0  0
   -3.5848  -31.5044  -34.0829 C   0  0  0  0  0  0  0  0  0  0  0  0
   -5.0377  -33.5144  -34.4539 C   0  0  0  0  0  0  0  0  0  0  0  0
   -5.4269  -30.4117  -32.7792 C   0  0  0  0  0  0  0  0  0  0  0  0
   -6.8813  -32.4239  -33.1505 C   0  0  0  0  0  0  0  0  0  0  0  0
   -5.8559  -31.2372  -35.1122 C   0  0  0  0  0  0  0  0  0  0  0  0
   -4.1884  -31.3187  -32.6803 C   0  0  0  0  0  0  0  0  0  0  0  0
   -5.6486  -33.3393  -33.0532 C   0  0  0  0  0  0  0  0  0  0  0  0
   -4.6191  -32.1477  -35.0221 C   0  0  0  0  0  0  0  0  0  0  0  0
   -6.4824  -31.0422  -33.7146 C   0  0  0  0  0  0  0  0  0  0  0  0
  -17.7557  -24.1145  -41.7251 C   0  0  0  0  0  0  0  0  0  0  0  0
  -16.4553  -22.4750  -39.2322 C   0  0  0  0  0  0  0  0  0  0  0  0
  -13.5770  -25.8876  -36.8835 C   0  0  0  0  0  0  0  0  0  0  0  0
  -16.9974  -24.6166  -40.5038 C   0  0  0  0  0  0  0  0  0  0  0  0
  -12.7905  -26.0538  -35.5837 C   0  0  0  0  0  0  0  0  0  0  0  0
  -11.3095  -26.4100  -35.7661 C   0  0  0  0  0  0  0  0  0  0  0  0
  -10.5334  -26.4864  -34.4471 C   0  0  0  0  0  0  0  0  0  0  0  0
   -9.0833  -26.9177  -34.6481 C   0  0  0  0  0  0  0  0  0  0  0  0
  -16.9858  -24.6421  -37.9693 C   0  0  2  0  0  0  0  0  0  0  0  0
  -17.2567  -23.7841  -39.2294 C   0  0  1  0  0  0  0  0  0  0  0  0
  -15.6185  -25.1000  -37.8864 N   0  0  0  0  0  0  0  0  0  0  0  0
   -7.6467  -30.1882  -33.8035 N   0  0  0  0  0  0  0  0  0  0  0  0
   -8.8525  -28.2816  -34.2343 N   0  0  0  0  0  0  0  0  0  0  0  0
  -15.5277  -25.3003  -35.5754 O   0  0  0  0  0  0  0  0  0  0  0  0
  -17.6421  -26.9733  -37.9857 O   0  0  0  0  0  0  0  0  0  0  0  0
   -6.5630  -28.3005  -34.6109 O   0  0  0  0  0  0  0  0  0  0  0  0
  -19.2521  -25.4283  -37.6186 O   0  0  0  0  0  0  0  0  0  0  0  0
   -3.7310  -33.3409  -32.0315 H   0  0  0  0  0  0  0  0  0  0  0  0
   -5.0271  -32.5735  -31.1171 H   0  0  0  0  0  0  0  0  0  0  0  0
   -3.2660  -30.5348  -34.4849 H   0  0  0  0  0  0  0  0  0  0  0  0
   -2.6890  -32.1350  -34.0242 H   0  0  0  0  0  0  0  0  0  0  0  0
   -4.1675  -34.1804  -34.4025 H   0  0  0  0  0  0  0  0  0  0  0  0
   -5.7647  -33.9915  -35.1225 H   0  0  0  0  0  0  0  0  0  0  0  0
   -5.8514  -30.2521  -31.7792 H   0  0  0  0  0  0  0  0  0  0  0  0
   -5.1344  -29.4207  -33.1506 H   0  0  0  0  0  0  0  0  0  0  0  0
   -7.6418  -32.8902  -33.7906 H   0  0  0  0  0  0  0  0  0  0  0  0
   -7.3412  -32.3114  -32.1597 H   0  0  0  0  0  0  0  0  0  0  0  0
   -5.5736  -30.2666  -35.5407 H   0  0  0  0  0  0  0  0  0  0  0  0
   -6.5901  -31.6753  -35.8012 H   0  0  0  0  0  0  0  0  0  0  0  0
   -3.4469  -30.8613  -32.0158 H   0  0  0  0  0  0  0  0  0  0  0  0
   -5.9434  -34.3158  -32.6532 H   0  0  0  0  0  0  0  0  0  0  0  0
   -4.1829  -32.2791  -36.0186 H   0  0  0  0  0  0  0  0  0  0  0  0
  -18.8353  -24.1139  -41.5453 H   0  0  0  0  0  0  0  0  0  0  0  0
  -17.4513  -23.0891  -41.9593 H   0  0  0  0  0  0  0  0  0  0  0  0
  -17.5498  -24.7281  -42.6069 H   0  0  0  0  0  0  0  0  0  0  0  0
  -16.5594  -21.9392  -40.1811 H   0  0  0  0  0  0  0  0  0  0  0  0
  -16.7775  -21.8074  -38.4267 H   0  0  0  0  0  0  0  0  0  0  0  0
  -15.3895  -22.6694  -39.0756 H   0  0  0  0  0  0  0  0  0  0  0  0
  -13.6509  -26.8655  -37.3759 H   0  0  0  0  0  0  0  0  0  0  0  0
  -13.0502  -25.2225  -37.5755 H   0  0  0  0  0  0  0  0  0  0  0  0
  -15.9256  -24.5907  -40.7367 H   0  0  0  0  0  0  0  0  0  0  0  0
  -17.2590  -25.6677  -40.3327 H   0  0  0  0  0  0  0  0  0  0  0  0
  -12.8548  -25.1289  -34.9972 H   0  0  0  0  0  0  0  0  0  0  0  0
  -13.2702  -26.8359  -34.9823 H   0  0  0  0  0  0  0  0  0  0  0  0
  -10.8544  -25.6408  -36.4027 H   0  0  0  0  0  0  0  0  0  0  0  0
  -11.2171  -27.3569  -36.3092 H   0  0  0  0  0  0  0  0  0  0  0  0
  -10.5405  -25.5006  -33.9669 H   0  0  0  0  0  0  0  0  0  0  0  0
  -11.0245  -27.1868  -33.7622 H   0  0  0  0  0  0  0  0  0  0  0  0
   -8.7836  -26.8296  -35.6971 H   0  0  0  0  0  0  0  0  0  0  0  0
   -8.4190  -26.2854  -34.0504 H   0  0  0  0  0  0  0  0  0  0  0  0
  -17.1434  -24.0330  -37.0704 H   0  0  0  0  0  0  0  0  0  0  0  0
  -18.3206  -23.5093  -39.2239 H   0  0  0  0  0  0  0  0  0  0  0  0
  -15.0894  -25.1722  -38.7505 H   0  0  0  0  0  0  0  0  0  0  0  0
   -8.5461  -30.5673  -33.5275 H   0  0  0  0  0  0  0  0  0  0  0  0
   -9.6524  -28.8450  -33.9635 H   0  0  0  0  0  0  0  0  0  0  0  0
  -19.8963  -26.1668  -37.5947 H   0  0  0  0  0  0  0  0  0  0  0  0
  1 16  1  0  0  0  0
  1 24  1  0  0  0  0
  1 27  2  0  0  0  0
  2 22  1  0  0  0  0
  2 28  2  0  0  0  0
  2 30  1  0  0  0  0
  3 25  1  0  0  0  0
  3 26  1  0  0  0  0
  3 29  2  0  0  0  0
  4 10  1  0  0  0  0
  4 11  1  0  0  0  0
  5 10  1  0  0  0  0
  5 12  1  0  0  0  0
  6 11  1  0  0  0  0
  6 12  1  0  0  0  0
  7 10  1  0  0  0  0
  7 13  1  0  0  0  0
  8 11  1  0  0  0  0
  8 13  1  0  0  0  0
  9 12  1  0  0  0  0
  9 13  1  0  0  0  0
 13 25  1  0  0  0  0
 14 17  1  0  0  0  0
 15 23  1  0  0  0  0
 16 18  1  0  0  0  0
 17 23  1  0  0  0  0
 18 19  1  0  0  0  0
 19 20  1  0  0  0  0
 20 21  1  0  0  0  0
 21 26  1  0  0  0  0
 22 23  1  0  0  0  0
 22 24  1  0  0  0  0
  4 31  1  0  0  0  0
  4 32  1  0  0  0  0
  5 33  1  0  0  0  0
  5 34  1  0  0  0  0
  6 35  1  0  0  0  0
  6 36  1  0  0  0  0
  7 37  1  0  0  0  0
  7 38  1  0  0  0  0
  8 39  1  0  0  0  0
  8 40  1  0  0  0  0
  9 41  1  0  0  0  0
  9 42  1  0  0  0  0
 10 43  1  0  0  0  0
 11 44  1  0  0  0  0
 12 45  1  0  0  0  0
 14 46  1  0  0  0  0
 14 47  1  0  0  0  0
 14 48  1  0  0  0  0
 15 49  1  0  0  0  0
 15 50  1  0  0  0  0
 15 51  1  0  0  0  0
 16 52  1  0  0  0  0
 16 53  1  0  0  0  0
 17 54  1  0  0  0  0
 17 55  1  0  0  0  0
 18 56  1  0  0  0  0
 18 57  1  0  0  0  0
 19 58  1  0  0  0  0
 19 59  1  0  0  0  0
 20 60  1  0  0  0  0
 20 61  1  0  0  0  0
 21 62  1  0  0  0  0
 21 63  1  0  0  0  0
 22 64  1  0  0  0  0
 23 65  1  0  0  0  0
 24 66  1  0  0  0  0
 25 67  1  0  0  0  0
 26 68  1  0  0  0  0
 30 69  1  0  0  0  0
M  END
> <Name>
IA_23

> <SourceTag>
IA_23

> <Gold.Version>
5.2

> <Gold.Id.Protein>
6HGV|6HGV_protein|mol2

> <Gold.Goldscore.Fitness>
76.0314

> <Gold.Goldscore.Internal.Vdw>
-6.4691

> <Gold.Goldscore.Internal.Torsion>
-6.5692

> <Gold.Goldscore.External.Vdw>
58.1166

> <Gold.Goldscore.Internal.HBond>
0.0000

> <Gold.Goldscore.External.HBond>
0.2086

> <Gold.Goldscore.Internal.Correction>
-8.9507

> <Gold.Goldscore.Hbonds>
donor molecule, donor type, donor heavy atom, donor atom, acceptor molecule, acceptor atom, score
      L1  H    24    66       P1  1931  0.10

> <Gold.Goldscore.Internal.Vdw.Weighted>
-6.4691

> <Gold.Goldscore.Internal.Torsion.Weighted>
-6.5692

> <Gold.Goldscore.External.Vdw.Weighted>
79.9104

> <Gold.Goldscore.Internal.HBond.Weighted>
0.0000

> <Gold.Goldscore.External.HBond.Weighted>
0.2086

> <Gold.Goldscore.Internal.Correction.Weighted>
-8.9507

> <Gold.Protein.RotatedTorsions>
[ 3781 1176 1175 1172 ] final -164.32 input   60.00 | X-H torsion
[ 3847 1247 1246 1244 ] final   -3.97 input   60.00 | X-H torsion
[ 4507 1931 1930 1928 ] final -137.72 input   60.00 | X-H torsion
[ 3677 1070 1069 1066 ] final  -99.40 input   60.00 | X-H torsion
[ 3525  925  924  922 ] final  -25.84 input   59.99 | X-H torsion
[ 4531 1957 1955 1953 ] final  -82.41 input   60.00 | X-H torsion

> <Gold.Protein.ActiveResidues>
 PHE267  PRO268  MET310  ASP335  TRP336  MET339  TYR343  THR360  PRO361  ILE363 
 PRO371  SER374  ILE375  ASN378  PHE381  TYR383  GLN384  PHE387  LEU408  LEU417 
 MET419  LEU428  TYR466  MET469  ASN472  ASP496  VAL498  LEU499  MET503  HIS524 
 TRP525 

> <Gold.Protein.RotatedAtoms>
   -3.7555  -29.5122  -30.0896 H   0  0  0  0  0  0  0  0  0  0  0  0  # atno 3525 bound_to 925 
  -11.7437  -23.7578  -31.4147 H   0  0  0  0  0  0  0  0  0  0  0  0  # atno 3677 bound_to 1070
   -9.2421  -36.4146  -33.0909 H   0  0  0  0  0  0  0  0  0  0  0  0  # atno 3781 bound_to 1176
  -15.7563  -28.6729  -37.0539 H   0  0  0  0  0  0  0  0  0  0  0  0  # atno 3847 bound_to 1247
  -13.3260  -24.2529  -40.4743 H   0  0  0  0  0  0  0  0  0  0  0  0  # atno 4507 bound_to 1931
   -1.6523  -32.3622  -36.9156 H   0  0  0  0  0  0  0  0  0  0  0  0  # atno 4531 bound_to 1957
  -10.4374  -37.3975  -32.5878 LP  0  0  0  0  0  0  0  0  0  0  0  0  # atno 5205 bound_to 1176
  -10.4368  -36.8243  -34.1169 LP  0  0  0  0  0  0  0  0  0  0  0  0  # atno 5206 bound_to 1176
  -15.4874  -27.2109  -37.7160 LP  0  0  0  0  0  0  0  0  0  0  0  0  # atno 5215 bound_to 1247
  -14.3167  -28.3491  -37.7401 LP  0  0  0  0  0  0  0  0  0  0  0  0  # atno 5216 bound_to 1247
  -12.4316  -24.1042  -39.1230 LP  0  0  0  0  0  0  0  0  0  0  0  0  # atno 5217 bound_to 1931
  -13.4353  -25.3794  -39.3051 LP  0  0  0  0  0  0  0  0  0  0  0  0  # atno 5218 bound_to 1931
  -11.3271  -22.3105  -30.7982 LP  0  0  0  0  0  0  0  0  0  0  0  0  # atno 5224 bound_to 1070
  -12.7847  -22.9600  -30.4515 LP  0  0  0  0  0  0  0  0  0  0  0  0  # atno 5225 bound_to 1070

$$$$
IA_29.cdx|SeH_inactivess_minimized|sdf|114|dock3
  -GOLD-   4172121 73D 1   1.00000     0.00000

 42 42  0  0  0  0  0  0  0  0  1 V2000
  -22.2823  -22.6487  -38.4045 C   0  0  0  0  0  0  0  0  0  0  0  0
  -13.9754  -25.4918  -37.4564 C   0  0  0  0  0  0  0  0  0  0  0  0
  -11.2884  -26.6003  -33.7085 C   0  0  0  0  0  0  0  0  0  0  0  0
  -11.1785  -25.1243  -34.0819 C   0  0  0  0  0  0  0  0  0  0  0  0
  -12.1995  -27.3637  -34.6660 C   0  0  0  0  0  0  0  0  0  0  0  0
  -10.7507  -24.9426  -35.5388 C   0  0  0  0  0  0  0  0  0  0  0  0
  -11.7690  -27.1771  -36.1216 C   0  0  0  0  0  0  0  0  0  0  0  0
  -11.6516  -25.7006  -36.5230 C   0  0  0  0  0  0  0  0  0  0  0  0
  -21.0888  -23.4154  -38.9260 C   0  0  0  0  0  0  0  0  0  0  0  0
  -19.8924  -23.3237  -37.9789 C   0  0  0  0  0  0  0  0  0  0  0  0
  -18.7417  -24.2139  -38.4521 C   0  0  0  0  0  0  0  0  0  0  0  0
  -17.4719  -24.0637  -37.6110 C   0  0  0  0  0  0  0  0  0  0  0  0
  -16.3247  -24.9505  -38.0820 C   0  0  0  0  0  0  0  0  0  0  0  0
  -12.9783  -25.0824  -36.5751 N   0  0  0  0  0  0  0  0  0  0  0  0
  -15.1386  -24.7371  -37.2972 N   0  0  0  0  0  0  0  0  0  0  0  0
  -22.4587  -22.3146  -37.2412 O   0  0  0  0  0  0  0  0  0  0  0  0
  -13.8512  -26.4034  -38.2731 O   0  0  0  0  0  0  0  0  0  0  0  0
  -23.1629  -22.3649  -39.3996 O   0  0  0  0  0  0  0  0  0  0  0  0
  -10.2904  -27.0554  -33.7077 H   0  0  0  0  0  0  0  0  0  0  0  0
  -11.6786  -26.6890  -32.6860 H   0  0  0  0  0  0  0  0  0  0  0  0
  -12.1418  -24.6295  -33.9173 H   0  0  0  0  0  0  0  0  0  0  0  0
  -10.4498  -24.6343  -33.4251 H   0  0  0  0  0  0  0  0  0  0  0  0
  -12.1815  -28.4309  -34.4151 H   0  0  0  0  0  0  0  0  0  0  0  0
  -13.2332  -27.0229  -34.5417 H   0  0  0  0  0  0  0  0  0  0  0  0
  -10.7495  -23.8669  -35.7870 H   0  0  0  0  0  0  0  0  0  0  0  0
   -9.7053  -25.2747  -35.6555 H   0  0  0  0  0  0  0  0  0  0  0  0
  -10.8048  -27.6874  -36.2845 H   0  0  0  0  0  0  0  0  0  0  0  0
  -12.4904  -27.6873  -36.7835 H   0  0  0  0  0  0  0  0  0  0  0  0
  -11.2440  -25.6244  -37.5278 H   0  0  0  0  0  0  0  0  0  0  0  0
  -20.8168  -23.0019  -39.9037 H   0  0  0  0  0  0  0  0  0  0  0  0
  -21.3835  -24.4636  -39.0484 H   0  0  0  0  0  0  0  0  0  0  0  0
  -20.1988  -23.6208  -36.9684 H   0  0  0  0  0  0  0  0  0  0  0  0
  -19.5621  -22.2803  -37.9165 H   0  0  0  0  0  0  0  0  0  0  0  0
  -19.0589  -25.2631  -38.4075 H   0  0  0  0  0  0  0  0  0  0  0  0
  -18.5139  -23.9975  -39.5030 H   0  0  0  0  0  0  0  0  0  0  0  0
  -17.7161  -24.3143  -36.5707 H   0  0  0  0  0  0  0  0  0  0  0  0
  -17.1515  -23.0142  -37.6052 H   0  0  0  0  0  0  0  0  0  0  0  0
  -16.0601  -24.7401  -39.1222 H   0  0  0  0  0  0  0  0  0  0  0  0
  -16.5852  -26.0098  -37.9955 H   0  0  0  0  0  0  0  0  0  0  0  0
  -13.1806  -24.3184  -35.9379 H   0  0  0  0  0  0  0  0  0  0  0  0
  -15.1606  -24.0337  -36.5617 H   0  0  0  0  0  0  0  0  0  0  0  0
  -23.9531  -21.8547  -39.1198 H   0  0  0  0  0  0  0  0  0  0  0  0
  1  9  1  0  0  0  0
  1 16  2  0  0  0  0
  1 18  1  0  0  0  0
  2 14  1  0  0  0  0
  2 15  1  0  0  0  0
  2 17  2  0  0  0  0
  3  4  1  0  0  0  0
  3  5  1  0  0  0  0
  4  6  1  0  0  0  0
  5  7  1  0  0  0  0
  6  8  1  0  0  0  0
  7  8  1  0  0  0  0
  8 14  1  0  0  0  0
  9 10  1  0  0  0  0
 10 11  1  0  0  0  0
 11 12  1  0  0  0  0
 12 13  1  0  0  0  0
 13 15  1  0  0  0  0
  3 19  1  0  0  0  0
  3 20  1  0  0  0  0
  4 21  1  0  0  0  0
  4 22  1  0  0  0  0
  5 23  1  0  0  0  0
  5 24  1  0  0  0  0
  6 25  1  0  0  0  0
  6 26  1  0  0  0  0
  7 27  1  0  0  0  0
  7 28  1  0  0  0  0
  8 29  1  0  0  0  0
  9 30  1  0  0  0  0
  9 31  1  0  0  0  0
 10 32  1  0  0  0  0
 10 33  1  0  0  0  0
 11 34  1  0  0  0  0
 11 35  1  0  0  0  0
 12 36  1  0  0  0  0
 12 37  1  0  0  0  0
 13 38  1  0  0  0  0
 13 39  1  0  0  0  0
 14 40  1  0  0  0  0
 15 41  1  0  0  0  0
 18 42  1  0  0  0  0
M  END
> <Name>
IA_29.cdx

> <SourceTag>
IA_29

> <Gold.Version>
5.2

> <Gold.Id.Protein>
6HGV|6HGV_protein|mol2

> <Gold.Goldscore.Fitness>
57.8790

> <Gold.Goldscore.Internal.Vdw>
-2.3936

> <Gold.Goldscore.Internal.Torsion>
-2.1400

> <Gold.Goldscore.External.Vdw>
38.1809

> <Gold.Goldscore.Internal.HBond>
0.0000

> <Gold.Goldscore.External.HBond>
5.9986

> <Gold.Goldscore.Internal.Correction>
-3.9151

> <Gold.Goldscore.Hbonds>
donor molecule, donor type, donor heavy atom, donor atom, acceptor molecule, acceptor atom, score
      L1  H    14    40       P1   853  0.75
      L1  H    15    41       P1   853  0.25

> <Gold.Goldscore.Internal.Vdw.Weighted>
-2.3936

> <Gold.Goldscore.Internal.Torsion.Weighted>
-2.1400

> <Gold.Goldscore.External.Vdw.Weighted>
52.4988

> <Gold.Goldscore.Internal.HBond.Weighted>
0.0000

> <Gold.Goldscore.External.HBond.Weighted>
5.9986

> <Gold.Goldscore.Internal.Correction.Weighted>
-3.9151

> <Gold.Protein.RotatedTorsions>
[ 3781 1176 1175 1172 ] final  -27.49 input   60.00 | X-H torsion
[ 3847 1247 1246 1244 ] final  -40.08 input   60.00 | X-H torsion
[ 4507 1931 1930 1928 ] final  104.14 input   60.00 | X-H torsion
[ 3677 1070 1069 1066 ] final  -80.07 input   60.00 | X-H torsion
[ 3525  925  924  922 ] final   25.62 input   59.99 | X-H torsion
[ 4531 1957 1955 1953 ] final  -54.35 input   60.00 | X-H torsion

> <Gold.Protein.ActiveResidues>
 PHE267  PRO268  MET310  ASP335  TRP336  MET339  TYR343  THR360  PRO361  ILE363 
 PRO371  SER374  ILE375  ASN378  PHE381  TYR383  GLN384  PHE387  LEU408  LEU417 
 MET419  LEU428  TYR466  MET469  ASN472  ASP496  VAL498  LEU499  MET503  HIS524 
 TRP525 

> <Gold.Protein.RotatedAtoms>
   -3.3051  -29.6479  -30.7526 H   0  0  0  0  0  0  0  0  0  0  0  0  # atno 3525 bound_to 925 
  -12.0320  -23.8390  -31.3192 H   0  0  0  0  0  0  0  0  0  0  0  0  # atno 3677 bound_to 1070
  -10.6149  -36.9928  -33.9922 H   0  0  0  0  0  0  0  0  0  0  0  0  # atno 3781 bound_to 1176
  -16.0428  -28.1743  -37.1322 H   0  0  0  0  0  0  0  0  0  0  0  0  # atno 3847 bound_to 1247
  -12.4327  -24.0880  -39.1497 H   0  0  0  0  0  0  0  0  0  0  0  0  # atno 4507 bound_to 1931
   -2.0688  -32.2016  -36.8337 H   0  0  0  0  0  0  0  0  0  0  0  0  # atno 4531 bound_to 1957
   -9.2719  -36.3336  -33.3520 LP  0  0  0  0  0  0  0  0  0  0  0  0  # atno 5205 bound_to 1176
  -10.2199  -37.3058  -32.4450 LP  0  0  0  0  0  0  0  0  0  0  0  0  # atno 5206 bound_to 1176
  -14.9389  -27.2664  -37.9101 LP  0  0  0  0  0  0  0  0  0  0  0  0  # atno 5215 bound_to 1247
  -14.5767  -28.7958  -37.4672 LP  0  0  0  0  0  0  0  0  0  0  0  0  # atno 5216 bound_to 1247
  -13.4183  -25.3762  -39.2799 LP  0  0  0  0  0  0  0  0  0  0  0  0  # atno 5217 bound_to 1931
  -13.3483  -24.2734  -40.4821 LP  0  0  0  0  0  0  0  0  0  0  0  0  # atno 5218 bound_to 1931
  -11.1633  -22.5033  -30.9885 LP  0  0  0  0  0  0  0  0  0  0  0  0  # atno 5224 bound_to 1070
  -12.6582  -22.6854  -30.3573 LP  0  0  0  0  0  0  0  0  0  0  0  0  # atno 5225 bound_to 1070

$$$$
IA_79.cdx|SeH_inactivess_minimized|sdf|156|dock8
  -GOLD-   4172122143D 1   1.00000     0.00000

 40 39  0  0  0  0  0  0  0  0  1 V2000
  -13.4324  -26.0193  -36.7668 C   0  0  0  0  0  0  0  0  0  0  0  0
  -16.9231  -24.6496  -36.7421 C   0  0  0  0  0  0  0  0  0  0  0  0
  -10.1951  -32.3418  -35.5153 C   0  0  0  0  0  0  0  0  0  0  0  0
   -5.9089  -30.2781  -35.2106 C   0  0  0  0  0  0  0  0  0  0  0  0
  -10.8610  -27.2255  -35.3939 C   0  0  0  0  0  0  0  0  0  0  0  0
   -9.5443  -27.9676  -35.6503 C   0  0  0  0  0  0  0  0  0  0  0  0
  -15.8860  -25.6722  -37.0607 C   0  0  0  0  0  0  0  0  0  0  0  0
  -10.9976  -25.9665  -36.2445 C   0  0  0  0  0  0  0  0  0  0  0  0
  -10.5839  -31.3134  -34.4747 C   0  0  0  0  0  0  0  0  0  0  0  0
   -7.1122  -29.6478  -34.5425 C   0  0  0  0  0  0  0  0  0  0  0  0
   -9.4401  -29.2689  -34.8428 C   0  0  0  0  0  0  0  0  0  0  0  0
  -14.5893  -25.2711  -36.5660 N   0  0  0  0  0  0  0  0  0  0  0  0
  -12.3195  -25.4069  -36.1865 N   0  0  0  0  0  0  0  0  0  0  0  0
  -13.3907  -27.0860  -37.3785 O   0  0  0  0  0  0  0  0  0  0  0  0
  -10.6301  -30.0308  -35.0858 O   0  0  0  0  0  0  0  0  0  0  0  0
   -8.2805  -29.9869  -35.2778 O   0  0  0  0  0  0  0  0  0  0  0  0
  -17.8857  -24.9159  -37.1920 H   0  0  0  0  0  0  0  0  0  0  0  0
  -17.0476  -24.5443  -35.6589 H   0  0  0  0  0  0  0  0  0  0  0  0
  -16.6200  -23.6755  -37.1445 H   0  0  0  0  0  0  0  0  0  0  0  0
  -10.9189  -32.3605  -36.3349 H   0  0  0  0  0  0  0  0  0  0  0  0
   -9.2035  -32.1214  -35.9243 H   0  0  0  0  0  0  0  0  0  0  0  0
  -10.1406  -33.3404  -35.0693 H   0  0  0  0  0  0  0  0  0  0  0  0
   -6.0104  -31.3662  -35.2510 H   0  0  0  0  0  0  0  0  0  0  0  0
   -5.7889  -29.8962  -36.2296 H   0  0  0  0  0  0  0  0  0  0  0  0
   -4.9914  -30.0290  -34.6672 H   0  0  0  0  0  0  0  0  0  0  0  0
  -10.9087  -26.9380  -34.3367 H   0  0  0  0  0  0  0  0  0  0  0  0
  -11.7106  -27.8916  -35.5870 H   0  0  0  0  0  0  0  0  0  0  0  0
   -8.6985  -27.3120  -35.4133 H   0  0  0  0  0  0  0  0  0  0  0  0
   -9.4595  -28.2053  -36.7182 H   0  0  0  0  0  0  0  0  0  0  0  0
  -15.8026  -25.8094  -38.1429 H   0  0  0  0  0  0  0  0  0  0  0  0
  -16.1350  -26.6335  -36.6016 H   0  0  0  0  0  0  0  0  0  0  0  0
  -10.3083  -25.1959  -35.8851 H   0  0  0  0  0  0  0  0  0  0  0  0
  -10.7643  -26.1687  -37.2946 H   0  0  0  0  0  0  0  0  0  0  0  0
   -9.8495  -31.2913  -33.6640 H   0  0  0  0  0  0  0  0  0  0  0  0
  -11.5698  -31.5415  -34.0590 H   0  0  0  0  0  0  0  0  0  0  0  0
   -7.0128  -28.5585  -34.5215 H   0  0  0  0  0  0  0  0  0  0  0  0
   -7.2206  -30.0176  -33.5185 H   0  0  0  0  0  0  0  0  0  0  0  0
   -9.3798  -29.0396  -33.7702 H   0  0  0  0  0  0  0  0  0  0  0  0
  -14.5182  -24.4016  -36.0467 H   0  0  0  0  0  0  0  0  0  0  0  0
  -12.4476  -24.5000  -35.7404 H   0  0  0  0  0  0  0  0  0  0  0  0
  1 12  1  0  0  0  0
  1 13  1  0  0  0  0
  1 14  2  0  0  0  0
  2  7  1  0  0  0  0
  3  9  1  0  0  0  0
  4 10  1  0  0  0  0
  5  6  1  0  0  0  0
  5  8  1  0  0  0  0
  6 11  1  0  0  0  0
  7 12  1  0  0  0  0
  8 13  1  0  0  0  0
  9 15  1  0  0  0  0
 10 16  1  0  0  0  0
 11 15  1  0  0  0  0
 11 16  1  0  0  0  0
  2 17  1  0  0  0  0
  2 18  1  0  0  0  0
  2 19  1  0  0  0  0
  3 20  1  0  0  0  0
  3 21  1  0  0  0  0
  3 22  1  0  0  0  0
  4 23  1  0  0  0  0
  4 24  1  0  0  0  0
  4 25  1  0  0  0  0
  5 26  1  0  0  0  0
  5 27  1  0  0  0  0
  6 28  1  0  0  0  0
  6 29  1  0  0  0  0
  7 30  1  0  0  0  0
  7 31  1  0  0  0  0
  8 32  1  0  0  0  0
  8 33  1  0  0  0  0
  9 34  1  0  0  0  0
  9 35  1  0  0  0  0
 10 36  1  0  0  0  0
 10 37  1  0  0  0  0
 11 38  1  0  0  0  0
 12 39  1  0  0  0  0
 13 40  1  0  0  0  0
M  END
> <Name>
IA_79.cdx

> <SourceTag>
IA_79

> <Gold.Version>
5.2

> <Gold.Id.Protein>
6HGV|6HGV_protein|mol2

> <Gold.Goldscore.Fitness>
49.9392

> <Gold.Goldscore.Internal.Vdw>
-5.9361

> <Gold.Goldscore.Internal.Torsion>
-6.2640

> <Gold.Goldscore.External.Vdw>
32.0223

> <Gold.Goldscore.Internal.HBond>
0.0000

> <Gold.Goldscore.External.HBond>
9.5100

> <Gold.Goldscore.Internal.Correction>
-8.5986

> <Gold.Goldscore.Hbonds>
donor molecule, donor type, donor heavy atom, donor atom, acceptor molecule, acceptor atom, score
      P1  H  1256  3854       L1    15  1.00
      P1  H  1247  3847       L1    14  0.27
      L1  H    12    39       P1   853  1.00
      L1  H    13    40       P1   853  0.16

> <Gold.Goldscore.Internal.Vdw.Weighted>
-5.9361

> <Gold.Goldscore.Internal.Torsion.Weighted>
-6.2640

> <Gold.Goldscore.External.Vdw.Weighted>
44.0306

> <Gold.Goldscore.Internal.HBond.Weighted>
0.0000

> <Gold.Goldscore.External.HBond.Weighted>
9.5100

> <Gold.Goldscore.Internal.Correction.Weighted>
-8.5986

> <Gold.Protein.RotatedTorsions>
[ 3781 1176 1175 1172 ] final  -98.94 input   60.00 | X-H torsion
[ 3847 1247 1246 1244 ] final  141.09 input   60.00 | X-H torsion
[ 4507 1931 1930 1928 ] final   76.26 input   60.00 | X-H torsion
[ 3677 1070 1069 1066 ] final  -95.53 input   60.00 | X-H torsion
[ 3525  925  924  922 ] final   24.70 input   59.99 | X-H torsion
[ 4531 1957 1955 1953 ] final   15.46 input   60.00 | X-H torsion

> <Gold.Protein.ActiveResidues>
 PHE267  PRO268  MET310  ASP335  TRP336  MET339  TYR343  THR360  PRO361  ILE363 
 PRO371  SER374  ILE375  ASN378  PHE381  TYR383  GLN384  PHE387  LEU408  LEU417 
 MET419  LEU428  TYR466  MET469  ASN472  ASP496  VAL498  LEU499  MET503  HIS524 
 TRP525 

> <Gold.Protein.RotatedAtoms>
   -3.3173  -29.6432  -30.7451 H   0  0  0  0  0  0  0  0  0  0  0  0  # atno 3525 bound_to 925 
  -11.8007  -23.7813  -31.4000 H   0  0  0  0  0  0  0  0  0  0  0  0  # atno 3677 bound_to 1070
   -9.7049  -36.3868  -33.9895 H   0  0  0  0  0  0  0  0  0  0  0  0  # atno 3781 bound_to 1176
  -14.3390  -27.9670  -37.8802 H   0  0  0  0  0  0  0  0  0  0  0  0  # atno 3847 bound_to 1247
  -12.5247  -24.4406  -38.8839 H   0  0  0  0  0  0  0  0  0  0  0  0  # atno 4507 bound_to 1931
   -2.9981  -32.7080  -36.6658 H   0  0  0  0  0  0  0  0  0  0  0  0  # atno 4531 bound_to 1957
   -9.5747  -36.8761  -32.4430 LP  0  0  0  0  0  0  0  0  0  0  0  0  # atno 5205 bound_to 1176
  -10.8334  -37.3737  -33.3567 LP  0  0  0  0  0  0  0  0  0  0  0  0  # atno 5206 bound_to 1176
  -15.4195  -28.8983  -37.0972 LP  0  0  0  0  0  0  0  0  0  0  0  0  # atno 5215 bound_to 1247
  -15.8120  -27.3726  -37.5268 LP  0  0  0  0  0  0  0  0  0  0  0  0  # atno 5216 bound_to 1247
  -13.6253  -25.3349  -39.6821 LP  0  0  0  0  0  0  0  0  0  0  0  0  # atno 5217 bound_to 1931
  -13.0486  -23.9596  -40.3475 LP  0  0  0  0  0  0  0  0  0  0  0  0  # atno 5218 bound_to 1931
  -11.2879  -22.3434  -30.8363 LP  0  0  0  0  0  0  0  0  0  0  0  0  # atno 5224 bound_to 1070
  -12.7666  -22.9034  -30.4282 LP  0  0  0  0  0  0  0  0  0  0  0  0  # atno 5225 bound_to 1070

$$$$
IA_33.cdx|SeH_inactivess_minimized|sdf|119|dock8
  -GOLD-   4172121193D 1   1.00000     0.00000

 35 35  0  0  0  0  0  0  0  0  1 V2000
  -17.5780  -24.1745  -39.7656 C   0  0  0  0  0  0  0  0  0  0  0  0
  -16.2746  -23.9578  -39.3187 C   0  0  0  0  0  0  0  0  0  0  0  0
  -18.5766  -24.5289  -38.8584 C   0  0  0  0  0  0  0  0  0  0  0  0
  -16.9682  -24.4501  -37.0573 C   0  0  0  0  0  0  0  0  0  0  0  0
  -15.9697  -24.0956  -37.9646 C   0  0  0  0  0  0  0  0  0  0  0  0
  -18.2716  -24.6668  -37.5043 C   0  0  0  0  0  0  0  0  0  0  0  0
  -10.0873  -27.7341  -34.7184 C   0  0  0  0  0  0  0  0  0  0  0  0
  -13.9681  -25.0507  -37.2337 C   0  0  0  0  0  0  0  0  0  0  0  0
  -12.1308  -29.8879  -32.5747 C   0  0  0  0  0  0  0  0  0  0  0  0
   -9.9549  -26.2299  -34.6267 C   0  0  0  0  0  0  0  0  0  0  0  0
  -11.2447  -25.4881  -34.9861 C   0  0  0  0  0  0  0  0  0  0  0  0
  -11.7151  -25.7249  -36.4193 C   0  0  0  0  0  0  0  0  0  0  0  0
  -11.1599  -29.5777  -33.6939 C   0  0  0  0  0  0  0  0  0  0  0  0
  -12.7215  -24.7120  -36.8061 N   0  0  0  0  0  0  0  0  0  0  0  0
   -9.5163  -28.4433  -35.5354 O   0  0  0  0  0  0  0  0  0  0  0  0
  -14.4215  -26.1850  -37.3544 O   0  0  0  0  0  0  0  0  0  0  0  0
  -14.6634  -23.8772  -37.5163 O   0  0  0  0  0  0  0  0  0  0  0  0
  -10.9683  -28.1612  -33.7657 O   0  0  0  0  0  0  0  0  0  0  0  0
  -19.5044  -25.1038  -36.3862 Cl  0  0  0  0  0  0  0  0  0  0  0  0
  -17.8152  -24.0665  -40.8200 H   0  0  0  0  0  0  0  0  0  0  0  0
  -15.5008  -23.6820  -40.0300 H   0  0  0  0  0  0  0  0  0  0  0  0
  -19.5877  -24.6953  -39.2210 H   0  0  0  0  0  0  0  0  0  0  0  0
  -16.7222  -24.5561  -36.0033 H   0  0  0  0  0  0  0  0  0  0  0  0
  -13.1148  -29.4580  -32.7813 H   0  0  0  0  0  0  0  0  0  0  0  0
  -12.2378  -30.9700  -32.4453 H   0  0  0  0  0  0  0  0  0  0  0  0
  -11.7635  -29.4885  -31.6235 H   0  0  0  0  0  0  0  0  0  0  0  0
   -9.6843  -25.9934  -33.5912 H   0  0  0  0  0  0  0  0  0  0  0  0
   -9.1373  -25.9017  -35.2775 H   0  0  0  0  0  0  0  0  0  0  0  0
  -12.0448  -25.7880  -34.2985 H   0  0  0  0  0  0  0  0  0  0  0  0
  -11.0817  -24.4139  -34.8331 H   0  0  0  0  0  0  0  0  0  0  0  0
  -10.8833  -25.6866  -37.1288 H   0  0  0  0  0  0  0  0  0  0  0  0
  -12.1805  -26.7129  -36.4994 H   0  0  0  0  0  0  0  0  0  0  0  0
  -11.5539  -29.9290  -34.6523 H   0  0  0  0  0  0  0  0  0  0  0  0
  -10.1933  -30.0551  -33.5071 H   0  0  0  0  0  0  0  0  0  0  0  0
  -12.4771  -23.7445  -36.7514 H   0  0  0  0  0  0  0  0  0  0  0  0
  1  2  1  0  0  0  0
  1  3  2  0  0  0  0
  2  5  2  0  0  0  0
  3  6  1  0  0  0  0
  4  5  1  0  0  0  0
  4  6  2  0  0  0  0
  5 17  1  0  0  0  0
  6 19  1  0  0  0  0
  7 10  1  0  0  0  0
  7 15  2  0  0  0  0
  7 18  1  0  0  0  0
  8 14  1  0  0  0  0
  8 16  2  0  0  0  0
  8 17  1  0  0  0  0
  9 13  1  0  0  0  0
 10 11  1  0  0  0  0
 11 12  1  0  0  0  0
 12 14  1  0  0  0  0
 13 18  1  0  0  0  0
  1 20  1  0  0  0  0
  2 21  1  0  0  0  0
  3 22  1  0  0  0  0
  4 23  1  0  0  0  0
  9 24  1  0  0  0  0
  9 25  1  0  0  0  0
  9 26  1  0  0  0  0
 10 27  1  0  0  0  0
 10 28  1  0  0  0  0
 11 29  1  0  0  0  0
 11 30  1  0  0  0  0
 12 31  1  0  0  0  0
 12 32  1  0  0  0  0
 13 33  1  0  0  0  0
 13 34  1  0  0  0  0
 14 35  1  0  0  0  0
M  END
> <Name>
IA_33.cdx

> <SourceTag>
IA_33

> <Gold.Version>
5.2

> <Gold.Id.Protein>
6HGV|6HGV_protein|mol2

> <Gold.Goldscore.Fitness>
53.2088

> <Gold.Goldscore.Internal.Vdw>
-0.5055

> <Gold.Goldscore.Internal.Torsion>
-3.9657

> <Gold.Goldscore.External.Vdw>
36.7396

> <Gold.Goldscore.Internal.HBond>
0.0000

> <Gold.Goldscore.External.HBond>
3.6377

> <Gold.Goldscore.Internal.Correction>
-3.5253

> <Gold.Goldscore.Hbonds>
donor molecule, donor type, donor heavy atom, donor atom, acceptor molecule, acceptor atom, score
      P1  H  1247  3847       L1    16  0.41
      L1  H    14    35       P1   854  0.47

> <Gold.Goldscore.Internal.Vdw.Weighted>
-0.5055

> <Gold.Goldscore.Internal.Torsion.Weighted>
-3.9657

> <Gold.Goldscore.External.Vdw.Weighted>
50.5170

> <Gold.Goldscore.Internal.HBond.Weighted>
0.0000

> <Gold.Goldscore.External.HBond.Weighted>
3.6377

> <Gold.Goldscore.Internal.Correction.Weighted>
-3.5253

> <Gold.Protein.RotatedTorsions>
[ 3781 1176 1175 1172 ] final  -78.71 input   60.00 | X-H torsion
[ 3847 1247 1246 1244 ] final -157.19 input   60.00 | X-H torsion
[ 4507 1931 1930 1928 ] final  139.24 input   60.00 | X-H torsion
[ 3677 1070 1069 1066 ] final -108.60 input   60.00 | X-H torsion
[ 3525  925  924  922 ] final -151.19 input   59.99 | X-H torsion
[ 4531 1957 1955 1953 ] final  -58.03 input   60.00 | X-H torsion

> <Gold.Protein.ActiveResidues>
 PHE267  PRO268  MET310  ASP335  TRP336  MET339  TYR343  THR360  PRO361  ILE363 
 PRO371  SER374  ILE375  ASN378  PHE381  TYR383  GLN384  PHE387  LEU408  LEU417 
 MET419  LEU428  TYR466  MET469  ASN472  ASP496  VAL498  LEU499  MET503  HIS524 
 TRP525 

> <Gold.Protein.RotatedAtoms>
   -2.5655  -30.1215  -29.0997 H   0  0  0  0  0  0  0  0  0  0  0  0  # atno 3525 bound_to 925 
  -11.6127  -23.6887  -31.4397 H   0  0  0  0  0  0  0  0  0  0  0  0  # atno 3677 bound_to 1070
   -9.9748  -36.5157  -34.1260 H   0  0  0  0  0  0  0  0  0  0  0  0  # atno 3781 bound_to 1176
  -14.9843  -27.2559  -37.8990 H   0  0  0  0  0  0  0  0  0  0  0  0  # atno 3847 bound_to 1247
  -12.5244  -23.8137  -39.6345 H   0  0  0  0  0  0  0  0  0  0  0  0  # atno 4507 bound_to 1931
   -2.0104  -32.2105  -36.8449 H   0  0  0  0  0  0  0  0  0  0  0  0  # atno 4531 bound_to 1957
   -9.3778  -36.6781  -32.6209 LP  0  0  0  0  0  0  0  0  0  0  0  0  # atno 5205 bound_to 1176
  -10.7585  -37.4418  -33.0414 LP  0  0  0  0  0  0  0  0  0  0  0  0  # atno 5206 bound_to 1176
  -14.5452  -28.7685  -37.4900 LP  0  0  0  0  0  0  0  0  0  0  0  0  # atno 5215 bound_to 1247
  -16.0364  -28.2186  -37.1151 LP  0  0  0  0  0  0  0  0  0  0  0  0  # atno 5216 bound_to 1247
  -13.0493  -25.1680  -38.9008 LP  0  0  0  0  0  0  0  0  0  0  0  0  # atno 5217 bound_to 1931
  -13.6249  -24.7579  -40.3729 LP  0  0  0  0  0  0  0  0  0  0  0  0  # atno 5218 bound_to 1931
  -11.4313  -22.2455  -30.7100 LP  0  0  0  0  0  0  0  0  0  0  0  0  # atno 5224 bound_to 1070
  -12.8124  -23.0946  -30.5145 LP  0  0  0  0  0  0  0  0  0  0  0  0  # atno 5225 bound_to 1070

$$$$
IA_172.cdx|SeH_inactivess_minimized|sdf|75|dock6
  -GOLD-   4172120163D 1   1.00000     0.00000

 34 33  0  0  0  0  0  0  0  0  1 V2000
  -10.0669  -27.2898  -36.1177 C   0  0  0  0  0  0  0  0  0  0  0  0
  -15.6809  -25.7003  -36.0119 C   0  0  0  0  0  0  0  0  0  0  0  0
   -9.0382  -31.8740  -35.4025 C   0  0  0  0  0  0  0  0  0  0  0  0
  -10.7387  -25.8573  -33.3625 C   0  0  0  0  0  0  0  0  0  0  0  0
  -14.3674  -25.4816  -36.7463 C   0  0  0  0  0  0  0  0  0  0  0  0
   -8.8157  -30.4213  -35.7972 C   0  0  0  0  0  0  0  0  0  0  0  0
  -13.1670  -25.7733  -35.8429 C   0  0  0  0  0  0  0  0  0  0  0  0
  -10.2942  -25.2583  -34.6534 C   0  0  0  0  0  0  0  0  0  0  0  0
  -11.8340  -25.5623  -36.5533 C   0  0  0  0  0  0  0  0  0  0  0  0
   -9.2153  -29.4784  -34.6678 C   0  0  0  0  0  0  0  0  0  0  0  0
  -10.7075  -26.0845  -35.7890 N   0  0  0  0  0  0  0  0  0  0  0  0
  -10.3914  -28.0036  -37.0642 O   0  0  0  0  0  0  0  0  0  0  0  0
   -8.7334  -27.7823  -35.0592 S   0  0  0  0  0  0  0  0  0  0  0  0
  -16.5345  -25.5345  -36.6771 H   0  0  0  0  0  0  0  0  0  0  0  0
  -15.7381  -26.7263  -35.6350 H   0  0  0  0  0  0  0  0  0  0  0  0
  -15.7721  -25.0199  -35.1591 H   0  0  0  0  0  0  0  0  0  0  0  0
   -8.4268  -32.1429  -34.5351 H   0  0  0  0  0  0  0  0  0  0  0  0
  -10.0884  -32.0395  -35.1424 H   0  0  0  0  0  0  0  0  0  0  0  0
   -8.7819  -32.5479  -36.2263 H   0  0  0  0  0  0  0  0  0  0  0  0
  -11.8312  -25.8481  -33.2830 H   0  0  0  0  0  0  0  0  0  0  0  0
  -10.3783  -26.8871  -33.2656 H   0  0  0  0  0  0  0  0  0  0  0  0
  -10.3341  -25.2766  -32.5248 H   0  0  0  0  0  0  0  0  0  0  0  0
  -14.3363  -26.1326  -37.6277 H   0  0  0  0  0  0  0  0  0  0  0  0
  -14.3296  -24.4469  -37.1048 H   0  0  0  0  0  0  0  0  0  0  0  0
   -9.4025  -30.2080  -36.6989 H   0  0  0  0  0  0  0  0  0  0  0  0
   -7.7581  -30.2844  -36.0532 H   0  0  0  0  0  0  0  0  0  0  0  0
  -13.2161  -25.1379  -34.9499 H   0  0  0  0  0  0  0  0  0  0  0  0
  -13.2191  -26.8143  -35.5018 H   0  0  0  0  0  0  0  0  0  0  0  0
   -9.2037  -25.1736  -34.6815 H   0  0  0  0  0  0  0  0  0  0  0  0
  -10.7285  -24.2635  -34.7894 H   0  0  0  0  0  0  0  0  0  0  0  0
  -11.6481  -24.5003  -36.7422 H   0  0  0  0  0  0  0  0  0  0  0  0
  -11.8364  -26.0840  -37.5156 H   0  0  0  0  0  0  0  0  0  0  0  0
  -10.2980  -29.5031  -34.5086 H   0  0  0  0  0  0  0  0  0  0  0  0
   -8.7289  -29.7694  -33.7312 H   0  0  0  0  0  0  0  0  0  0  0  0
  1 11  1  0  0  0  0
  1 12  2  0  0  0  0
  1 13  1  0  0  0  0
  2  5  1  0  0  0  0
  3  6  1  0  0  0  0
  4  8  1  0  0  0  0
  5  7  1  0  0  0  0
  6 10  1  0  0  0  0
  7  9  1  0  0  0  0
  8 11  1  0  0  0  0
  9 11  1  0  0  0  0
 10 13  1  0  0  0  0
  2 14  1  0  0  0  0
  2 15  1  0  0  0  0
  2 16  1  0  0  0  0
  3 17  1  0  0  0  0
  3 18  1  0  0  0  0
  3 19  1  0  0  0  0
  4 20  1  0  0  0  0
  4 21  1  0  0  0  0
  4 22  1  0  0  0  0
  5 23  1  0  0  0  0
  5 24  1  0  0  0  0
  6 25  1  0  0  0  0
  6 26  1  0  0  0  0
  7 27  1  0  0  0  0
  7 28  1  0  0  0  0
  8 29  1  0  0  0  0
  8 30  1  0  0  0  0
  9 31  1  0  0  0  0
  9 32  1  0  0  0  0
 10 33  1  0  0  0  0
 10 34  1  0  0  0  0
M  END
> <Name>
IA_172.cdx

> <SourceTag>
IA_172

> <Gold.Version>
5.2

> <Gold.Id.Protein>
6HGV|6HGV_protein|mol2

> <Gold.Goldscore.Fitness>
47.4871

> <Gold.Goldscore.Internal.Vdw>
-4.9920

> <Gold.Goldscore.Internal.Torsion>
-3.1357

> <Gold.Goldscore.External.Vdw>
36.3900

> <Gold.Goldscore.Internal.HBond>
0.0000

> <Gold.Goldscore.External.HBond>
0.0000

> <Gold.Goldscore.Internal.Correction>
-5.5785

> <Gold.Goldscore.Internal.Vdw.Weighted>
-4.9920

> <Gold.Goldscore.Internal.Torsion.Weighted>
-3.1357

> <Gold.Goldscore.External.Vdw.Weighted>
50.0363

> <Gold.Goldscore.Internal.HBond.Weighted>
0.0000

> <Gold.Goldscore.External.HBond.Weighted>
0.0000

> <Gold.Goldscore.Internal.Correction.Weighted>
-5.5785

> <Gold.Protein.RotatedTorsions>
[ 3781 1176 1175 1172 ] final -121.66 input   60.00 | X-H torsion
[ 3847 1247 1246 1244 ] final   99.75 input   60.00 | X-H torsion
[ 4507 1931 1930 1928 ] final  101.54 input   60.00 | X-H torsion
[ 3677 1070 1069 1066 ] final  -70.07 input   60.00 | X-H torsion
[ 3525  925  924  922 ] final -140.23 input   59.99 | X-H torsion
[ 4531 1957 1955 1953 ] final   23.40 input   60.00 | X-H torsion

> <Gold.Protein.ActiveResidues>
 PHE267  PRO268  MET310  ASP335  TRP336  MET339  TYR343  THR360  PRO361  ILE363 
 PRO371  SER374  ILE375  ASN378  PHE381  TYR383  GLN384  PHE387  LEU408  LEU417 
 MET419  LEU428  TYR466  MET469  ASN472  ASP496  VAL498  LEU499  MET503  HIS524 
 TRP525 

> <Gold.Protein.RotatedAtoms>
   -2.7211  -30.0594  -29.0372 H   0  0  0  0  0  0  0  0  0  0  0  0  # atno 3525 bound_to 925 
  -12.1797  -23.8446  -31.2497 H   0  0  0  0  0  0  0  0  0  0  0  0  # atno 3677 bound_to 1070
   -9.4519  -36.3148  -33.7310 H   0  0  0  0  0  0  0  0  0  0  0  0  # atno 3781 bound_to 1176
  -14.4021  -28.5728  -37.6237 H   0  0  0  0  0  0  0  0  0  0  0  0  # atno 3847 bound_to 1247
  -12.4352  -24.1172  -39.1189 H   0  0  0  0  0  0  0  0  0  0  0  0  # atno 4507 bound_to 1931
   -3.0481  -32.8274  -36.6583 H   0  0  0  0  0  0  0  0  0  0  0  0  # atno 4531 bound_to 1957
   -9.8625  -37.0975  -32.3647 LP  0  0  0  0  0  0  0  0  0  0  0  0  # atno 5205 bound_to 1176
  -10.8004  -37.2248  -33.6954 LP  0  0  0  0  0  0  0  0  0  0  0  0  # atno 5206 bound_to 1176
  -15.9260  -28.4681  -37.0629 LP  0  0  0  0  0  0  0  0  0  0  0  0  # atno 5215 bound_to 1247
  -15.2419  -27.1928  -37.8193 LP  0  0  0  0  0  0  0  0  0  0  0  0  # atno 5216 bound_to 1247
  -13.4420  -25.3804  -39.3152 LP  0  0  0  0  0  0  0  0  0  0  0  0  # atno 5217 bound_to 1931
  -13.3221  -24.2398  -40.4777 LP  0  0  0  0  0  0  0  0  0  0  0  0  # atno 5218 bound_to 1931
  -11.1126  -22.6272  -31.0840 LP  0  0  0  0  0  0  0  0  0  0  0  0  # atno 5224 bound_to 1070
  -12.5602  -22.5559  -30.3317 LP  0  0  0  0  0  0  0  0  0  0  0  0  # atno 5225 bound_to 1070

$$$$
IA_136.cdx|SeH_inactivess_minimized|sdf|38|dock9
  -GOLD-   4172119263D 1   1.00000     0.00000

 38 39  0  0  0  0  0  0  0  0  1 V2000
  -20.0024  -24.1049  -39.1323 C   0  0  0  0  0  0  0  0  0  0  0  0
  -18.9751  -24.3313  -40.0435 C   0  0  0  0  0  0  0  0  0  0  0  0
  -19.8038  -24.3661  -37.7763 C   0  0  0  0  0  0  0  0  0  0  0  0
  -17.7451  -24.8200  -39.6020 C   0  0  0  0  0  0  0  0  0  0  0  0
  -18.3547  -25.1268  -35.9531 C   0  0  0  0  0  0  0  0  0  0  0  0
  -17.1246  -25.6155  -35.5117 C   0  0  0  0  0  0  0  0  0  0  0  0
  -16.2960  -25.5807  -37.7789 C   0  0  0  0  0  0  0  0  0  0  0  0
  -18.5722  -24.8583  -37.3144 C   0  0  0  0  0  0  0  0  0  0  0  0
  -17.5275  -25.0886  -38.2409 C   0  0  0  0  0  0  0  0  0  0  0  0
  -16.0974  -25.8420  -36.4229 C   0  0  0  0  0  0  0  0  0  0  0  0
  -13.6148  -26.2637  -36.6218 C   0  0  0  0  0  0  0  0  0  0  0  0
   -9.8348  -29.3623  -33.8366 C   0  0  0  0  0  0  0  0  0  0  0  0
  -10.0141  -25.3615  -33.9891 C   0  0  0  0  0  0  0  0  0  0  0  0
  -11.2405  -26.9549  -36.2557 C   0  0  0  0  0  0  0  0  0  0  0  0
  -10.3323  -27.4305  -35.1205 C   0  0  0  0  0  0  0  0  0  0  0  0
  -14.8678  -26.3311  -35.9800 N   0  0  0  0  0  0  0  0  0  0  0  0
  -12.6238  -26.8743  -35.8465 N   0  0  0  0  0  0  0  0  0  0  0  0
  -13.3896  -25.7460  -37.7132 O   0  0  0  0  0  0  0  0  0  0  0  0
  -10.5919  -28.8261  -34.9135 O   0  0  0  0  0  0  0  0  0  0  0  0
  -10.5748  -26.6661  -33.9359 O   0  0  0  0  0  0  0  0  0  0  0  0
  -20.9596  -23.7238  -39.4765 H   0  0  0  0  0  0  0  0  0  0  0  0
  -19.1306  -24.1280  -41.0990 H   0  0  0  0  0  0  0  0  0  0  0  0
  -20.6210  -24.1818  -37.0822 H   0  0  0  0  0  0  0  0  0  0  0  0
  -16.9564  -24.9902  -40.3320 H   0  0  0  0  0  0  0  0  0  0  0  0
  -19.1435  -24.9575  -35.2232 H   0  0  0  0  0  0  0  0  0  0  0  0
  -16.9810  -25.8157  -34.4529 H   0  0  0  0  0  0  0  0  0  0  0  0
  -15.4853  -25.7618  -38.4834 H   0  0  0  0  0  0  0  0  0  0  0  0
   -8.7716  -29.1802  -34.0114 H   0  0  0  0  0  0  0  0  0  0  0  0
  -10.0232  -30.4359  -33.7566 H   0  0  0  0  0  0  0  0  0  0  0  0
  -10.1386  -28.8710  -32.9092 H   0  0  0  0  0  0  0  0  0  0  0  0
   -8.9407  -25.4331  -34.1813 H   0  0  0  0  0  0  0  0  0  0  0  0
  -10.1918  -24.8485  -33.0407 H   0  0  0  0  0  0  0  0  0  0  0  0
  -10.4903  -24.8027  -34.7982 H   0  0  0  0  0  0  0  0  0  0  0  0
  -10.9573  -25.9585  -36.6059 H   0  0  0  0  0  0  0  0  0  0  0  0
  -11.2014  -27.6515  -37.0992 H   0  0  0  0  0  0  0  0  0  0  0  0
   -9.2863  -27.3232  -35.4377 H   0  0  0  0  0  0  0  0  0  0  0  0
  -14.8606  -26.8030  -35.0697 H   0  0  0  0  0  0  0  0  0  0  0  0
  -12.8889  -27.2800  -34.9545 H   0  0  0  0  0  0  0  0  0  0  0  0
  1  2  1  0  0  0  0
  1  3  2  0  0  0  0
  2  4  2  0  0  0  0
  3  8  1  0  0  0  0
  4  9  1  0  0  0  0
  5  6  1  0  0  0  0
  5  8  2  0  0  0  0
  6 10  2  0  0  0  0
  7  9  2  0  0  0  0
  7 10  1  0  0  0  0
  8  9  1  0  0  0  0
 10 16  1  0  0  0  0
 11 16  1  0  0  0  0
 11 17  1  0  0  0  0
 11 18  2  0  0  0  0
 12 19  1  0  0  0  0
 13 20  1  0  0  0  0
 14 15  1  0  0  0  0
 14 17  1  0  0  0  0
 15 19  1  0  0  0  0
 15 20  1  0  0  0  0
  1 21  1  0  0  0  0
  2 22  1  0  0  0  0
  3 23  1  0  0  0  0
  4 24  1  0  0  0  0
  5 25  1  0  0  0  0
  6 26  1  0  0  0  0
  7 27  1  0  0  0  0
 12 28  1  0  0  0  0
 12 29  1  0  0  0  0
 12 30  1  0  0  0  0
 13 31  1  0  0  0  0
 13 32  1  0  0  0  0
 13 33  1  0  0  0  0
 14 34  1  0  0  0  0
 14 35  1  0  0  0  0
 15 36  1  0  0  0  0
 16 37  1  0  0  0  0
 17 38  1  0  0  0  0
M  END
> <Name>
IA_136.cdx

> <SourceTag>
IA_136

> <Gold.Version>
5.2

> <Gold.Id.Protein>
6HGV|6HGV_protein|mol2

> <Gold.Goldscore.Fitness>
57.5309

> <Gold.Goldscore.Internal.Vdw>
-5.1477

> <Gold.Goldscore.Internal.Torsion>
-2.2116

> <Gold.Goldscore.External.Vdw>
40.7959

> <Gold.Goldscore.Internal.HBond>
0.0000

> <Gold.Goldscore.External.HBond>
2.3825

> <Gold.Goldscore.Internal.Correction>
-6.4133

> <Gold.Goldscore.Hbonds>
donor molecule, donor type, donor heavy atom, donor atom, acceptor molecule, acceptor atom, score
      P1  H  1256  3854       L1    19  0.24
      P1  H  1931  4507       L1    18  0.95

> <Gold.Goldscore.Internal.Vdw.Weighted>
-5.1477

> <Gold.Goldscore.Internal.Torsion.Weighted>
-2.2116

> <Gold.Goldscore.External.Vdw.Weighted>
56.0944

> <Gold.Goldscore.Internal.HBond.Weighted>
0.0000

> <Gold.Goldscore.External.HBond.Weighted>
2.3825

> <Gold.Goldscore.Internal.Correction.Weighted>
-6.4133

> <Gold.Protein.RotatedTorsions>
[ 3781 1176 1175 1172 ] final  -75.66 input   60.00 | X-H torsion
[ 3847 1247 1246 1244 ] final  -14.50 input   60.00 | X-H torsion
[ 4507 1931 1930 1928 ] final   18.20 input   60.00 | X-H torsion
[ 3677 1070 1069 1066 ] final -112.83 input   60.00 | X-H torsion
[ 3525  925  924  922 ] final -169.11 input   59.99 | X-H torsion
[ 4531 1957 1955 1953 ] final  -16.62 input   60.00 | X-H torsion

> <Gold.Protein.ActiveResidues>
 PHE267  PRO268  MET310  ASP335  TRP336  MET339  TYR343  THR360  PRO361  ILE363 
 PRO371  SER374  ILE375  ASN378  PHE381  TYR383  GLN384  PHE387  LEU408  LEU417 
 MET419  LEU428  TYR466  MET469  ASN472  ASP496  VAL498  LEU499  MET503  HIS524 
 TRP525 

> <Gold.Protein.RotatedAtoms>
   -2.3408  -30.2042  -29.2663 H   0  0  0  0  0  0  0  0  0  0  0  0  # atno 3525 bound_to 925 
  -11.5553  -23.6510  -31.4464 H   0  0  0  0  0  0  0  0  0  0  0  0  # atno 3677 bound_to 1070
  -10.0171  -36.5396  -34.1376 H   0  0  0  0  0  0  0  0  0  0  0  0  # atno 3781 bound_to 1176
  -15.8694  -28.5437  -37.0590 H   0  0  0  0  0  0  0  0  0  0  0  0  # atno 3847 bound_to 1247
  -13.0592  -25.1748  -38.9148 H   0  0  0  0  0  0  0  0  0  0  0  0  # atno 4507 bound_to 1931
   -2.6507  -32.3291  -36.7253 H   0  0  0  0  0  0  0  0  0  0  0  0  # atno 4531 bound_to 1957
   -9.3546  -36.6497  -32.6553 LP  0  0  0  0  0  0  0  0  0  0  0  0  # atno 5205 bound_to 1176
  -10.7391  -37.4461  -32.9953 LP  0  0  0  0  0  0  0  0  0  0  0  0  # atno 5206 bound_to 1176
  -15.3302  -27.1910  -37.7853 LP  0  0  0  0  0  0  0  0  0  0  0  0  # atno 5215 bound_to 1247
  -14.3601  -28.4992  -37.6657 LP  0  0  0  0  0  0  0  0  0  0  0  0  # atno 5216 bound_to 1247
  -13.6193  -24.7436  -40.3805 LP  0  0  0  0  0  0  0  0  0  0  0  0  # atno 5217 bound_to 1931
  -12.5163  -23.8115  -39.6181 LP  0  0  0  0  0  0  0  0  0  0  0  0  # atno 5218 bound_to 1931
  -11.4838  -22.2222  -30.6709 LP  0  0  0  0  0  0  0  0  0  0  0  0  # atno 5224 bound_to 1070
  -12.8177  -23.1559  -30.5468 LP  0  0  0  0  0  0  0  0  0  0  0  0  # atno 5225 bound_to 1070

$$$$
IA_143.cdx|SeH_inactivess_minimized|sdf|46|dock3
  -GOLD-   4172119363D 1   1.00000     0.00000

 23 23  0  0  0  0  0  0  0  0  1 V2000
   -9.3232  -27.3062  -34.6320 C   0  0  0  0  0  0  0  0  0  0  0  0
   -9.8116  -26.1043  -34.1197 C   0  0  0  0  0  0  0  0  0  0  0  0
   -9.7111  -27.7318  -35.9026 C   0  0  0  0  0  0  0  0  0  0  0  0
  -10.6880  -25.3280  -34.8778 C   0  0  0  0  0  0  0  0  0  0  0  0
  -10.5876  -26.9555  -36.6607 C   0  0  0  0  0  0  0  0  0  0  0  0
  -11.0760  -25.7535  -36.1483 C   0  0  0  0  0  0  0  0  0  0  0  0
  -13.4802  -25.2813  -36.7600 C   0  0  0  0  0  0  0  0  0  0  0  0
  -15.7242  -24.4093  -37.3612 C   0  0  0  0  0  0  0  0  0  0  0  0
  -12.0224  -24.9161  -36.9671 C   0  0  0  0  0  0  0  0  0  0  0  0
  -16.2858  -23.2758  -37.9234 N   0  0  0  0  0  0  0  0  0  0  0  0
  -14.3272  -24.3531  -37.3699 N   0  0  0  0  0  0  0  0  0  0  0  0
  -13.8488  -26.2715  -36.1341 O   0  0  0  0  0  0  0  0  0  0  0  0
  -16.3957  -25.3386  -36.9170 O   0  0  0  0  0  0  0  0  0  0  0  0
   -8.6396  -27.9099  -34.0422 H   0  0  0  0  0  0  0  0  0  0  0  0
   -9.5087  -25.7723  -33.1310 H   0  0  0  0  0  0  0  0  0  0  0  0
   -9.3301  -28.6669  -36.3021 H   0  0  0  0  0  0  0  0  0  0  0  0
  -11.0638  -24.3930  -34.4705 H   0  0  0  0  0  0  0  0  0  0  0  0
  -10.8845  -27.2950  -37.6495 H   0  0  0  0  0  0  0  0  0  0  0  0
  -11.7826  -25.0208  -38.0329 H   0  0  0  0  0  0  0  0  0  0  0  0
  -11.8850  -23.8561  -36.7186 H   0  0  0  0  0  0  0  0  0  0  0  0
  -15.6805  -22.5414  -38.2747 H   0  0  0  0  0  0  0  0  0  0  0  0
  -17.2922  -23.1668  -37.9903 H   0  0  0  0  0  0  0  0  0  0  0  0
  -13.9037  -23.5703  -37.8612 H   0  0  0  0  0  0  0  0  0  0  0  0
  1  2  2  0  0  0  0
  1  3  1  0  0  0  0
  2  4  1  0  0  0  0
  3  5  2  0  0  0  0
  4  6  2  0  0  0  0
  5  6  1  0  0  0  0
  6  9  1  0  0  0  0
  7  9  1  0  0  0  0
  7 11  1  0  0  0  0
  7 12  2  0  0  0  0
  8 10  1  0  0  0  0
  8 11  1  0  0  0  0
  8 13  2  0  0  0  0
  1 14  1  0  0  0  0
  2 15  1  0  0  0  0
  3 16  1  0  0  0  0
  4 17  1  0  0  0  0
  5 18  1  0  0  0  0
  9 19  1  0  0  0  0
  9 20  1  0  0  0  0
 10 21  1  0  0  0  0
 10 22  1  0  0  0  0
 11 23  1  0  0  0  0
M  END
> <Name>
IA_143.cdx

> <SourceTag>
IA_143

> <Gold.Version>
5.2

> <Gold.Id.Protein>
6HGV|6HGV_protein|mol2

> <Gold.Goldscore.Fitness>
42.3484

> <Gold.Goldscore.Internal.Vdw>
-3.6489

> <Gold.Goldscore.Internal.Torsion>
-1.3627

> <Gold.Goldscore.External.Vdw>
30.1051

> <Gold.Goldscore.Internal.HBond>
0.0000

> <Gold.Goldscore.External.HBond>
2.0908

> <Gold.Goldscore.Internal.Correction>
-3.8747

> <Gold.Goldscore.Hbonds>
donor molecule, donor type, donor heavy atom, donor atom, acceptor molecule, acceptor atom, score
      P1  H  1247  3847       L1    13  0.66
      L1  H    10    21       P1   302  0.39

> <Gold.Goldscore.Internal.Vdw.Weighted>
-3.6489

> <Gold.Goldscore.Internal.Torsion.Weighted>
-1.3627

> <Gold.Goldscore.External.Vdw.Weighted>
41.3946

> <Gold.Goldscore.Internal.HBond.Weighted>
0.0000

> <Gold.Goldscore.External.HBond.Weighted>
2.0908

> <Gold.Goldscore.Internal.Correction.Weighted>
-3.8747

> <Gold.Protein.RotatedTorsions>
[ 3781 1176 1175 1172 ] final  -36.46 input   60.00 | X-H torsion
[ 3847 1247 1246 1244 ] final -114.37 input   60.00 | X-H torsion
[ 4507 1931 1930 1928 ] final -127.23 input   60.00 | X-H torsion
[ 3677 1070 1069 1066 ] final -113.04 input   60.00 | X-H torsion
[ 3525  925  924  922 ] final  -60.47 input   59.99 | X-H torsion
[ 4531 1957 1955 1953 ] final  149.08 input   60.00 | X-H torsion

> <Gold.Protein.ActiveResidues>
 PHE267  PRO268  MET310  ASP335  TRP336  MET339  TYR343  THR360  PRO361  ILE363 
 PRO371  SER374  ILE375  ASN378  PHE381  TYR383  GLN384  PHE387  LEU408  LEU417 
 MET419  LEU428  TYR466  MET469  ASN472  ASP496  VAL498  LEU499  MET503  HIS524 
 TRP525 

> <Gold.Protein.RotatedAtoms>
   -3.7030  -29.5854  -29.5396 H   0  0  0  0  0  0  0  0  0  0  0  0  # atno 3525 bound_to 925 
  -11.5525  -23.6490  -31.4467 H   0  0  0  0  0  0  0  0  0  0  0  0  # atno 3677 bound_to 1070
  -10.5230  -36.9045  -34.0644 H   0  0  0  0  0  0  0  0  0  0  0  0  # atno 3781 bound_to 1176
  -15.6199  -27.2611  -37.6475 H   0  0  0  0  0  0  0  0  0  0  0  0  # atno 3847 bound_to 1247
  -13.4264  -24.3914  -40.4793 H   0  0  0  0  0  0  0  0  0  0  0  0  # atno 4507 bound_to 1931
   -1.9172  -34.0279  -36.8941 H   0  0  0  0  0  0  0  0  0  0  0  0  # atno 4531 bound_to 1957
   -9.2452  -36.3685  -33.2113 LP  0  0  0  0  0  0  0  0  0  0  0  0  # atno 5205 bound_to 1176
  -10.3390  -37.3598  -32.5130 LP  0  0  0  0  0  0  0  0  0  0  0  0  # atno 5206 bound_to 1176
  -14.3027  -28.2043  -37.8010 LP  0  0  0  0  0  0  0  0  0  0  0  0  # atno 5215 bound_to 1247
  -15.6388  -28.7775  -37.0573 LP  0  0  0  0  0  0  0  0  0  0  0  0  # atno 5216 bound_to 1247
  -12.4311  -23.9933  -39.2550 LP  0  0  0  0  0  0  0  0  0  0  0  0  # atno 5217 bound_to 1931
  -13.3347  -25.3507  -39.1681 LP  0  0  0  0  0  0  0  0  0  0  0  0  # atno 5218 bound_to 1931
  -11.4865  -22.2211  -30.6689 LP  0  0  0  0  0  0  0  0  0  0  0  0  # atno 5224 bound_to 1070
  -12.8179  -23.1589  -30.5485 LP  0  0  0  0  0  0  0  0  0  0  0  0  # atno 5225 bound_to 1070

$$$$
IA_184.cdx|SeH_inactivess_minimized|sdf|84|dock2
  -GOLD-   4172120223D 1   1.00000     0.00000

 17 18  0  0  0  0  0  0  0  0  1 V2000
  -17.3904  -25.3623  -35.0268 C   0  0  0  0  0  0  0  0  0  0  0  0
  -16.0945  -25.6996  -35.4203 C   0  0  0  0  0  0  0  0  0  0  0  0
  -18.3374  -24.9831  -35.9810 C   0  0  0  0  0  0  0  0  0  0  0  0
  -15.7428  -25.6584  -36.7678 C   0  0  0  0  0  0  0  0  0  0  0  0
  -17.9924  -24.9395  -37.3352 C   0  0  0  0  0  0  0  0  0  0  0  0
  -16.6982  -25.2779  -37.7087 C   0  0  0  0  0  0  0  0  0  0  0  0
  -17.2639  -24.8690  -39.9866 C   0  0  0  0  0  0  0  0  0  0  0  0
  -18.9810  -24.5380  -38.3799 C   0  0  0  0  0  0  0  0  0  0  0  0
  -18.4834  -24.5378  -39.7540 N   0  0  0  0  0  0  0  0  0  0  0  0
  -16.3105  -25.2467  -39.0519 O   0  0  0  0  0  0  0  0  0  0  0  0
  -16.7437  -24.8459  -41.6266 Cl  0  0  0  0  0  0  0  0  0  0  0  0
  -17.6635  -25.3936  -33.9758 H   0  0  0  0  0  0  0  0  0  0  0  0
  -15.3604  -25.9935  -34.6758 H   0  0  0  0  0  0  0  0  0  0  0  0
  -19.3431  -24.7222  -35.6615 H   0  0  0  0  0  0  0  0  0  0  0  0
  -14.7346  -25.9204  -37.0744 H   0  0  0  0  0  0  0  0  0  0  0  0
  -19.8392  -25.2183  -38.3322 H   0  0  0  0  0  0  0  0  0  0  0  0
  -19.3445  -23.5294  -38.1522 H   0  0  0  0  0  0  0  0  0  0  0  0
  1  2  2  0  0  0  0
  1  3  1  0  0  0  0
  2  4  1  0  0  0  0
  3  5  2  0  0  0  0
  4  6  2  0  0  0  0
  5  6  1  0  0  0  0
  5  8  1  0  0  0  0
  6 10  1  0  0  0  0
  7  9  2  0  0  0  0
  7 10  1  0  0  0  0
  7 11  1  0  0  0  0
  8  9  1  0  0  0  0
  1 12  1  0  0  0  0
  2 13  1  0  0  0  0
  3 14  1  0  0  0  0
  4 15  1  0  0  0  0
  8 16  1  0  0  0  0
  8 17  1  0  0  0  0
M  END
> <Name>
IA_184.cdx

> <SourceTag>
IA_184

> <Gold.Version>
5.2

> <Gold.Id.Protein>
6HGV|6HGV_protein|mol2

> <Gold.Goldscore.Fitness>
32.8534

> <Gold.Goldscore.Internal.Vdw>
-0.0000

> <Gold.Goldscore.Internal.Torsion>
-0.0000

> <Gold.Goldscore.External.Vdw>
23.8934

> <Gold.Goldscore.Internal.HBond>
0.0000

> <Gold.Goldscore.External.HBond>
0.0000

> <Gold.Goldscore.Internal.Correction>
0.0000

> <Gold.Goldscore.Internal.Vdw.Weighted>
-0.0000

> <Gold.Goldscore.Internal.Torsion.Weighted>
-0.0000

> <Gold.Goldscore.External.Vdw.Weighted>
32.8534

> <Gold.Goldscore.Internal.HBond.Weighted>
0.0000

> <Gold.Goldscore.External.HBond.Weighted>
0.0000

> <Gold.Goldscore.Internal.Correction.Weighted>
0.0000

> <Gold.Protein.RotatedTorsions>
[ 3781 1176 1175 1172 ] final  -47.33 input   60.00 | X-H torsion
[ 3847 1247 1246 1244 ] final   60.97 input   60.00 | X-H torsion
[ 4507 1931 1930 1928 ] final  -70.58 input   60.00 | X-H torsion
[ 3677 1070 1069 1066 ] final -119.11 input   60.00 | X-H torsion
[ 3525  925  924  922 ] final  145.84 input   59.99 | X-H torsion
[ 4531 1957 1955 1953 ] final  113.40 input   60.00 | X-H torsion

> <Gold.Protein.ActiveResidues>
 PHE267  PRO268  MET310  ASP335  TRP336  MET339  TYR343  THR360  PRO361  ILE363 
 PRO371  SER374  ILE375  ASN378  PHE381  TYR383  GLN384  PHE387  LEU408  LEU417 
 MET419  LEU428  TYR466  MET469  ASN472  ASP496  VAL498  LEU499  MET503  HIS524 
 TRP525 

> <Gold.Protein.RotatedAtoms>
   -2.0562  -30.2683  -29.9216 H   0  0  0  0  0  0  0  0  0  0  0  0  # atno 3525 bound_to 925 
  -11.4741  -23.5886  -31.4509 H   0  0  0  0  0  0  0  0  0  0  0  0  # atno 3677 bound_to 1070
  -10.3960  -36.7969  -34.1256 H   0  0  0  0  0  0  0  0  0  0  0  0  # atno 3781 bound_to 1176
  -14.8211  -28.9220  -37.3257 H   0  0  0  0  0  0  0  0  0  0  0  0  # atno 3847 bound_to 1247
  -13.6959  -25.1259  -40.0583 H   0  0  0  0  0  0  0  0  0  0  0  0  # atno 4507 bound_to 1931
   -2.4806  -34.0168  -36.7868 H   0  0  0  0  0  0  0  0  0  0  0  0  # atno 4531 bound_to 1957
   -9.2389  -36.4274  -33.0427 LP  0  0  0  0  0  0  0  0  0  0  0  0  # atno 5205 bound_to 1176
  -10.4733  -37.4093  -32.6200 LP  0  0  0  0  0  0  0  0  0  0  0  0  # atno 5206 bound_to 1176
  -16.0693  -27.8823  -37.2308 LP  0  0  0  0  0  0  0  0  0  0  0  0  # atno 5215 bound_to 1247
  -14.6766  -27.4269  -37.9516 LP  0  0  0  0  0  0  0  0  0  0  0  0  # atno 5216 bound_to 1247
  -12.7630  -23.7925  -40.0612 LP  0  0  0  0  0  0  0  0  0  0  0  0  # atno 5217 bound_to 1931
  -12.7314  -24.8119  -38.7858 LP  0  0  0  0  0  0  0  0  0  0  0  0  # atno 5218 bound_to 1931
  -11.5664  -22.1954  -30.6150 LP  0  0  0  0  0  0  0  0  0  0  0  0  # atno 5224 bound_to 1070
  -12.8169  -23.2454  -30.5982 LP  0  0  0  0  0  0  0  0  0  0  0  0  # atno 5225 bound_to 1070

$$$$
IA_112.cdx|SeH_inactivess_minimized|sdf|15|dock5
  -GOLD-   4172118523D 1   1.00000     0.00000

 33 33  0  0  0  0  0  0  0  0  1 V2000
  -16.6966  -23.5260  -38.1449 C   0  0  0  0  0  0  0  0  0  0  0  0
  -13.9788  -25.1279  -37.5848 C   0  0  0  0  0  0  0  0  0  0  0  0
  -10.5590  -25.7411  -33.9555 C   0  0  0  0  0  0  0  0  0  0  0  0
  -10.1274  -25.5452  -35.4064 C   0  0  0  0  0  0  0  0  0  0  0  0
  -12.0758  -25.6734  -33.7983 C   0  0  0  0  0  0  0  0  0  0  0  0
  -10.8393  -26.5230  -36.3422 C   0  0  0  0  0  0  0  0  0  0  0  0
  -12.7830  -26.6511  -34.7377 C   0  0  0  0  0  0  0  0  0  0  0  0
  -12.3668  -26.4745  -36.2041 C   0  0  0  0  0  0  0  0  0  0  0  0
  -18.2169  -24.9289  -36.9977 C   0  0  0  0  0  0  0  0  0  0  0  0
  -15.3411  -23.4378  -38.8060 C   0  0  0  0  0  0  0  0  0  0  0  0
  -12.8833  -25.2084  -36.7287 N   0  0  0  0  0  0  0  0  0  0  0  0
  -14.2552  -23.8070  -37.9289 N   0  0  0  0  0  0  0  0  0  0  0  0
  -17.4494  -22.5607  -38.0677 O   0  0  0  0  0  0  0  0  0  0  0  0
  -14.6211  -26.0976  -37.9858 O   0  0  0  0  0  0  0  0  0  0  0  0
  -16.9599  -24.7723  -37.6643 O   0  0  0  0  0  0  0  0  0  0  0  0
  -10.1934  -26.7084  -33.5896 H   0  0  0  0  0  0  0  0  0  0  0  0
  -10.0934  -24.9683  -33.3296 H   0  0  0  0  0  0  0  0  0  0  0  0
  -10.3395  -24.5169  -35.7187 H   0  0  0  0  0  0  0  0  0  0  0  0
   -9.0432  -25.6880  -35.4876 H   0  0  0  0  0  0  0  0  0  0  0  0
  -12.3467  -25.9047  -32.7613 H   0  0  0  0  0  0  0  0  0  0  0  0
  -12.4221  -24.6540  -34.0002 H   0  0  0  0  0  0  0  0  0  0  0  0
  -10.5520  -26.3038  -37.3855 H   0  0  0  0  0  0  0  0  0  0  0  0
  -10.4772  -27.5459  -36.1440 H   0  0  0  0  0  0  0  0  0  0  0  0
  -12.5759  -27.6843  -34.4113 H   0  0  0  0  0  0  0  0  0  0  0  0
  -13.8754  -26.5233  -34.6422 H   0  0  0  0  0  0  0  0  0  0  0  0
  -12.8157  -27.2571  -36.8105 H   0  0  0  0  0  0  0  0  0  0  0  0
  -19.0290  -24.6901  -37.6888 H   0  0  0  0  0  0  0  0  0  0  0  0
  -18.2555  -24.2652  -36.1302 H   0  0  0  0  0  0  0  0  0  0  0  0
  -18.3168  -25.9651  -36.6660 H   0  0  0  0  0  0  0  0  0  0  0  0
  -15.1694  -22.4071  -39.1269 H   0  0  0  0  0  0  0  0  0  0  0  0
  -15.3157  -24.1159  -39.6627 H   0  0  0  0  0  0  0  0  0  0  0  0
  -12.4199  -24.3471  -36.4548 H   0  0  0  0  0  0  0  0  0  0  0  0
  -13.6992  -23.0668  -37.5124 H   0  0  0  0  0  0  0  0  0  0  0  0
  1 10  1  0  0  0  0
  1 13  2  0  0  0  0
  1 15  1  0  0  0  0
  2 11  1  0  0  0  0
  2 12  1  0  0  0  0
  2 14  2  0  0  0  0
  3  4  1  0  0  0  0
  3  5  1  0  0  0  0
  4  6  1  0  0  0  0
  5  7  1  0  0  0  0
  6  8  1  0  0  0  0
  7  8  1  0  0  0  0
  8 11  1  0  0  0  0
  9 15  1  0  0  0  0
 10 12  1  0  0  0  0
  3 16  1  0  0  0  0
  3 17  1  0  0  0  0
  4 18  1  0  0  0  0
  4 19  1  0  0  0  0
  5 20  1  0  0  0  0
  5 21  1  0  0  0  0
  6 22  1  0  0  0  0
  6 23  1  0  0  0  0
  7 24  1  0  0  0  0
  7 25  1  0  0  0  0
  8 26  1  0  0  0  0
  9 27  1  0  0  0  0
  9 28  1  0  0  0  0
  9 29  1  0  0  0  0
 10 30  1  0  0  0  0
 10 31  1  0  0  0  0
 11 32  1  0  0  0  0
 12 33  1  0  0  0  0
M  END
> <Name>
IA_112.cdx

> <SourceTag>
IA_112

> <Gold.Version>
5.2

> <Gold.Id.Protein>
6HGV|6HGV_protein|mol2

> <Gold.Goldscore.Fitness>
48.3437

> <Gold.Goldscore.Internal.Vdw>
-1.3513

> <Gold.Goldscore.Internal.Torsion>
-1.8385

> <Gold.Goldscore.External.Vdw>
31.1170

> <Gold.Goldscore.Internal.HBond>
0.0000

> <Gold.Goldscore.External.HBond>
6.2754

> <Gold.Goldscore.Internal.Correction>
-2.4723

> <Gold.Goldscore.Hbonds>
donor molecule, donor type, donor heavy atom, donor atom, acceptor molecule, acceptor atom, score
      P1  H  1247  3847       L1    14  0.76
      L1  H    11    32       P1   854  0.07
      L1  H    12    33       P1   854  0.72

> <Gold.Goldscore.Internal.Vdw.Weighted>
-1.3513

> <Gold.Goldscore.Internal.Torsion.Weighted>
-1.8385

> <Gold.Goldscore.External.Vdw.Weighted>
42.7858

> <Gold.Goldscore.Internal.HBond.Weighted>
0.0000

> <Gold.Goldscore.External.HBond.Weighted>
6.2754

> <Gold.Goldscore.Internal.Correction.Weighted>
-2.4723

> <Gold.Protein.RotatedTorsions>
[ 3781 1176 1175 1172 ] final  -47.65 input   60.00 | X-H torsion
[ 3847 1247 1246 1244 ] final -157.33 input   60.00 | X-H torsion
[ 4507 1931 1930 1928 ] final -163.39 input   60.00 | X-H torsion
[ 3677 1070 1069 1066 ] final  -84.70 input   60.00 | X-H torsion
[ 3525  925  924  922 ] final  -40.32 input   59.99 | X-H torsion
[ 4531 1957 1955 1953 ] final  148.84 input   60.00 | X-H torsion

> <Gold.Protein.ActiveResidues>
 PHE267  PRO268  MET310  ASP335  TRP336  MET339  TYR343  THR360  PRO361  ILE363 
 PRO371  SER374  ILE375  ASN378  PHE381  TYR383  GLN384  PHE387  LEU408  LEU417 
 MET419  LEU428  TYR466  MET469  ASN472  ASP496  VAL498  LEU499  MET503  HIS524 
 TRP525 

> <Gold.Protein.RotatedAtoms>
   -3.7713  -29.5268  -29.8546 H   0  0  0  0  0  0  0  0  0  0  0  0  # atno 3525 bound_to 925 
  -11.9626  -23.8279  -31.3470 H   0  0  0  0  0  0  0  0  0  0  0  0  # atno 3677 bound_to 1070
  -10.3921  -36.7937  -34.1269 H   0  0  0  0  0  0  0  0  0  0  0  0  # atno 3781 bound_to 1176
  -14.9823  -27.2566  -37.8995 H   0  0  0  0  0  0  0  0  0  0  0  0  # atno 3847 bound_to 1247
  -13.0509  -23.9683  -40.3464 H   0  0  0  0  0  0  0  0  0  0  0  0  # atno 4507 bound_to 1931
   -1.9209  -34.0290  -36.8934 H   0  0  0  0  0  0  0  0  0  0  0  0  # atno 4531 bound_to 1957
   -9.2391  -36.4294  -33.0379 LP  0  0  0  0  0  0  0  0  0  0  0  0  # atno 5205 bound_to 1176
  -10.4770  -37.4105  -32.6235 LP  0  0  0  0  0  0  0  0  0  0  0  0  # atno 5206 bound_to 1176
  -14.5466  -28.7698  -37.4889 LP  0  0  0  0  0  0  0  0  0  0  0  0  # atno 5215 bound_to 1247
  -16.0370  -28.2165  -37.1156 LP  0  0  0  0  0  0  0  0  0  0  0  0  # atno 5216 bound_to 1247
  -12.5206  -24.4336  -38.8799 LP  0  0  0  0  0  0  0  0  0  0  0  0  # atno 5217 bound_to 1931
  -13.6234  -25.3366  -39.6769 LP  0  0  0  0  0  0  0  0  0  0  0  0  # atno 5218 bound_to 1931
  -11.1949  -22.4510  -30.9432 LP  0  0  0  0  0  0  0  0  0  0  0  0  # atno 5224 bound_to 1070
  -12.6964  -22.7489  -30.3746 LP  0  0  0  0  0  0  0  0  0  0  0  0  # atno 5225 bound_to 1070

$$$$
IA_139.cdx|SeH_inactivess_minimized|sdf|41|dock3
  -GOLD-   4172119303D 1   1.00000     0.00000

 46 48  0  0  0  0  0  0  0  0  1 V2000
  -24.1556  -23.4123  -36.0620 C   0  0  0  0  0  0  0  0  0  0  0  0
  -23.6530  -24.2198  -35.0461 C   0  0  0  0  0  0  0  0  0  0  0  0
  -23.3284  -23.0165  -37.1136 C   0  0  0  0  0  0  0  0  0  0  0  0
  -22.3214  -24.6348  -35.0779 C   0  0  0  0  0  0  0  0  0  0  0  0
  -21.1388  -23.0359  -38.2124 C   0  0  0  0  0  0  0  0  0  0  0  0
  -19.8071  -23.4508  -38.2442 C   0  0  0  0  0  0  0  0  0  0  0  0
  -20.1316  -24.6542  -36.1767 C   0  0  0  0  0  0  0  0  0  0  0  0
  -21.9856  -23.4247  -37.1616 C   0  0  0  0  0  0  0  0  0  0  0  0
  -21.4745  -24.2460  -36.1285 C   0  0  0  0  0  0  0  0  0  0  0  0
  -19.3046  -24.2584  -37.2282 C   0  0  0  0  0  0  0  0  0  0  0  0
  -17.1618  -25.1046  -36.1922 C   0  0  0  0  0  0  0  0  0  0  0  0
   -9.6898  -27.0446  -34.6016 C   0  0  0  0  0  0  0  0  0  0  0  0
  -10.9746  -27.7949  -34.2649 C   0  0  0  0  0  0  0  0  0  0  0  0
   -9.9187  -25.5373  -34.6576 C   0  0  0  0  0  0  0  0  0  0  0  0
  -12.1054  -27.4357  -35.2261 C   0  0  0  0  0  0  0  0  0  0  0  0
  -11.0478  -25.1742  -35.6193 C   0  0  0  0  0  0  0  0  0  0  0  0
  -12.3446  -25.9206  -35.2784 C   0  0  0  0  0  0  0  0  0  0  0  0
  -13.4424  -25.5824  -36.2852 C   0  0  0  0  0  0  0  0  0  0  0  0
  -14.8341  -25.9085  -35.7626 C   0  0  0  0  0  0  0  0  0  0  0  0
  -17.9542  -24.6780  -37.2616 N   0  0  0  0  0  0  0  0  0  0  0  0
  -15.8729  -25.4368  -36.6359 N   0  0  0  0  0  0  0  0  0  0  0  0
  -17.5048  -25.1919  -35.0156 O   0  0  0  0  0  0  0  0  0  0  0  0
  -25.1925  -23.0901  -36.0370 H   0  0  0  0  0  0  0  0  0  0  0  0
  -24.2975  -24.5273  -34.2276 H   0  0  0  0  0  0  0  0  0  0  0  0
  -23.7427  -22.3849  -37.8967 H   0  0  0  0  0  0  0  0  0  0  0  0
  -21.9497  -25.2654  -34.2728 H   0  0  0  0  0  0  0  0  0  0  0  0
  -21.5100  -22.4047  -39.0170 H   0  0  0  0  0  0  0  0  0  0  0  0
  -19.1717  -23.1364  -39.0683 H   0  0  0  0  0  0  0  0  0  0  0  0
  -19.7279  -25.2862  -35.3866 H   0  0  0  0  0  0  0  0  0  0  0  0
   -8.9223  -27.2734  -33.8536 H   0  0  0  0  0  0  0  0  0  0  0  0
   -9.3082  -27.3914  -35.5697 H   0  0  0  0  0  0  0  0  0  0  0  0
  -10.7899  -28.8747  -34.2998 H   0  0  0  0  0  0  0  0  0  0  0  0
  -11.2790  -27.5561  -33.2384 H   0  0  0  0  0  0  0  0  0  0  0  0
  -10.1615  -25.1671  -33.6539 H   0  0  0  0  0  0  0  0  0  0  0  0
   -8.9946  -25.0362  -34.9675 H   0  0  0  0  0  0  0  0  0  0  0  0
  -11.8584  -27.8095  -36.2282 H   0  0  0  0  0  0  0  0  0  0  0  0
  -13.0227  -27.9490  -34.9137 H   0  0  0  0  0  0  0  0  0  0  0  0
  -11.2187  -24.0915  -35.5843 H   0  0  0  0  0  0  0  0  0  0  0  0
  -10.7378  -25.4133  -36.6449 H   0  0  0  0  0  0  0  0  0  0  0  0
  -12.6825  -25.5900  -34.2871 H   0  0  0  0  0  0  0  0  0  0  0  0
  -13.2603  -26.1554  -37.1996 H   0  0  0  0  0  0  0  0  0  0  0  0
  -13.3723  -24.5208  -36.5432 H   0  0  0  0  0  0  0  0  0  0  0  0
  -14.9543  -26.9932  -35.6792 H   0  0  0  0  0  0  0  0  0  0  0  0
  -15.0024  -25.4700  -34.7740 H   0  0  0  0  0  0  0  0  0  0  0  0
  -17.5108  -24.6666  -38.1767 H   0  0  0  0  0  0  0  0  0  0  0  0
  -15.6628  -25.3385  -37.6280 H   0  0  0  0  0  0  0  0  0  0  0  0
  1  2  1  0  0  0  0
  1  3  2  0  0  0  0
  2  4  2  0  0  0  0
  3  8  1  0  0  0  0
  4  9  1  0  0  0  0
  5  6  1  0  0  0  0
  5  8  2  0  0  0  0
  6 10  2  0  0  0  0
  7  9  2  0  0  0  0
  7 10  1  0  0  0  0
  8  9  1  0  0  0  0
 10 20  1  0  0  0  0
 11 20  1  0  0  0  0
 11 21  1  0  0  0  0
 11 22  2  0  0  0  0
 12 13  1  0  0  0  0
 12 14  1  0  0  0  0
 13 15  1  0  0  0  0
 14 16  1  0  0  0  0
 15 17  1  0  0  0  0
 16 17  1  0  0  0  0
 17 18  1  0  0  0  0
 18 19  1  0  0  0  0
 19 21  1  0  0  0  0
  1 23  1  0  0  0  0
  2 24  1  0  0  0  0
  3 25  1  0  0  0  0
  4 26  1  0  0  0  0
  5 27  1  0  0  0  0
  6 28  1  0  0  0  0
  7 29  1  0  0  0  0
 12 30  1  0  0  0  0
 12 31  1  0  0  0  0
 13 32  1  0  0  0  0
 13 33  1  0  0  0  0
 14 34  1  0  0  0  0
 14 35  1  0  0  0  0
 15 36  1  0  0  0  0
 15 37  1  0  0  0  0
 16 38  1  0  0  0  0
 16 39  1  0  0  0  0
 17 40  1  0  0  0  0
 18 41  1  0  0  0  0
 18 42  1  0  0  0  0
 19 43  1  0  0  0  0
 19 44  1  0  0  0  0
 20 45  1  0  0  0  0
 21 46  1  0  0  0  0
M  END
> <Name>
IA_139.cdx

> <SourceTag>
IA_139

> <Gold.Version>
5.2

> <Gold.Id.Protein>
6HGV|6HGV_protein|mol2

> <Gold.Goldscore.Fitness>
67.0200

> <Gold.Goldscore.Internal.Vdw>
-3.8624

> <Gold.Goldscore.Internal.Torsion>
-2.3026

> <Gold.Goldscore.External.Vdw>
49.7433

> <Gold.Goldscore.Internal.HBond>
0.0000

> <Gold.Goldscore.External.HBond>
0.0000

> <Gold.Goldscore.Internal.Correction>
-4.7880

> <Gold.Goldscore.Internal.Vdw.Weighted>
-3.8624

> <Gold.Goldscore.Internal.Torsion.Weighted>
-2.3026

> <Gold.Goldscore.External.Vdw.Weighted>
68.3971

> <Gold.Goldscore.Internal.HBond.Weighted>
0.0000

> <Gold.Goldscore.External.HBond.Weighted>
0.0000

> <Gold.Goldscore.Internal.Correction.Weighted>
-4.7880

> <Gold.Protein.RotatedTorsions>
[ 3781 1176 1175 1172 ] final   23.15 input   60.00 | X-H torsion
[ 3847 1247 1246 1244 ] final   80.65 input   60.00 | X-H torsion
[ 4507 1931 1930 1928 ] final  100.57 input   60.00 | X-H torsion
[ 3677 1070 1069 1066 ] final  -91.00 input   60.00 | X-H torsion
[ 3525  925  924  922 ] final  144.53 input   59.99 | X-H torsion
[ 4531 1957 1955 1953 ] final  130.58 input   60.00 | X-H torsion

> <Gold.Protein.ActiveResidues>
 PHE267  PRO268  MET310  ASP335  TRP336  MET339  TYR343  THR360  PRO361  ILE363 
 PRO371  SER374  ILE375  ASN378  PHE381  TYR383  GLN384  PHE387  LEU408  LEU417 
 MET419  LEU428  TYR466  MET469  ASN472  ASP496  VAL498  LEU499  MET503  HIS524 
 TRP525 

> <Gold.Protein.RotatedAtoms>
   -2.0554  -30.2668  -29.9429 H   0  0  0  0  0  0  0  0  0  0  0  0  # atno 3525 bound_to 925 
  -11.8681  -23.8042  -31.3799 H   0  0  0  0  0  0  0  0  0  0  0  0  # atno 3677 bound_to 1070
  -10.8233  -37.3821  -33.3243 H   0  0  0  0  0  0  0  0  0  0  0  0  # atno 3781 bound_to 1176
  -14.5737  -28.7849  -37.4753 H   0  0  0  0  0  0  0  0  0  0  0  0  # atno 3847 bound_to 1247
  -12.4364  -24.1284  -39.1076 H   0  0  0  0  0  0  0  0  0  0  0  0  # atno 4507 bound_to 1931
   -2.2104  -34.0670  -36.8390 H   0  0  0  0  0  0  0  0  0  0  0  0  # atno 4531 bound_to 1957
   -9.7306  -36.3922  -34.0127 LP  0  0  0  0  0  0  0  0  0  0  0  0  # atno 5205 bound_to 1176
   -9.5512  -36.8552  -32.4570 LP  0  0  0  0  0  0  0  0  0  0  0  0  # atno 5206 bound_to 1176
  -16.0453  -28.1855  -37.1242 LP  0  0  0  0  0  0  0  0  0  0  0  0  # atno 5215 bound_to 1247
  -14.9498  -27.2618  -37.9075 LP  0  0  0  0  0  0  0  0  0  0  0  0  # atno 5216 bound_to 1247
  -13.4507  -25.3815  -39.3287 LP  0  0  0  0  0  0  0  0  0  0  0  0  # atno 5217 bound_to 1931
  -13.3121  -24.2274  -40.4756 LP  0  0  0  0  0  0  0  0  0  0  0  0  # atno 5218 bound_to 1931
  -11.2459  -22.3857  -30.8810 LP  0  0  0  0  0  0  0  0  0  0  0  0  # atno 5224 bound_to 1070
  -12.7406  -22.8380  -30.4036 LP  0  0  0  0  0  0  0  0  0  0  0  0  # atno 5225 bound_to 1070

$$$$
IA_82.cdx|SeH_inactivess_minimized|sdf|160|dock8
  -GOLD-   4172122213D 1   1.00000     0.00000

 56 55  0  0  0  0  0  0  0  0  1 V2000
   -9.3999  -30.4899  -33.8843 C   0  0  0  0  0  0  0  0  0  0  0  0
  -11.0848  -25.4368  -33.4434 C   0  0  0  0  0  0  0  0  0  0  0  0
  -11.3810  -25.3933  -35.9056 C   0  0  0  0  0  0  0  0  0  0  0  0
   -9.3607  -26.4820  -34.9386 C   0  0  0  0  0  0  0  0  0  0  0  0
   -4.1071  -31.2739  -34.0953 C   0  0  0  0  0  0  0  0  0  0  0  0
   -4.7520  -30.0717  -32.0238 C   0  0  0  0  0  0  0  0  0  0  0  0
   -5.6557  -29.3019  -34.2130 C   0  0  0  0  0  0  0  0  0  0  0  0
  -10.9779  -28.5130  -32.4266 C   0  0  0  0  0  0  0  0  0  0  0  0
  -12.4021  -29.8542  -33.9607 C   0  0  0  0  0  0  0  0  0  0  0  0
   -6.6983  -32.4914  -35.5103 C   0  0  0  0  0  0  0  0  0  0  0  0
   -8.3088  -33.1082  -33.7195 C   0  0  0  0  0  0  0  0  0  0  0  0
  -11.6932  -27.5792  -34.7279 C   0  0  0  0  0  0  0  0  0  0  0  0
   -6.4802  -31.5023  -33.1325 C   0  0  0  0  0  0  0  0  0  0  0  0
  -10.8639  -26.2557  -34.7284 C   0  0  0  0  0  0  0  0  0  0  0  0
   -5.2741  -30.5472  -33.4016 C   0  0  0  0  0  0  0  0  0  0  0  0
  -11.2567  -28.8228  -33.8997 C   0  0  0  0  0  0  0  0  0  0  0  0
   -7.4321  -31.9662  -34.2734 C   0  0  0  0  0  0  0  0  0  0  0  0
  -10.0841  -29.4457  -34.4902 N   0  0  0  0  0  0  0  0  0  0  0  0
   -8.3193  -30.8957  -34.6632 N   0  0  0  0  0  0  0  0  0  0  0  0
   -9.7036  -30.9938  -32.8037 O   0  0  0  0  0  0  0  0  0  0  0  0
  -10.6653  -24.4315  -33.5082 H   0  0  0  0  0  0  0  0  0  0  0  0
  -10.6400  -25.9340  -32.5742 H   0  0  0  0  0  0  0  0  0  0  0  0
  -12.1547  -25.3129  -33.2372 H   0  0  0  0  0  0  0  0  0  0  0  0
  -10.9062  -24.4054  -35.9101 H   0  0  0  0  0  0  0  0  0  0  0  0
  -12.4651  -25.2440  -35.8422 H   0  0  0  0  0  0  0  0  0  0  0  0
  -11.1709  -25.8677  -36.8712 H   0  0  0  0  0  0  0  0  0  0  0  0
   -8.9467  -27.1245  -34.1524 H   0  0  0  0  0  0  0  0  0  0  0  0
   -9.1507  -26.9751  -35.8923 H   0  0  0  0  0  0  0  0  0  0  0  0
   -8.8095  -25.5358  -34.9097 H   0  0  0  0  0  0  0  0  0  0  0  0
   -3.1436  -30.7978  -33.9062 H   0  0  0  0  0  0  0  0  0  0  0  0
   -4.2556  -31.3182  -35.1800 H   0  0  0  0  0  0  0  0  0  0  0  0
   -4.0186  -32.3057  -33.7347 H   0  0  0  0  0  0  0  0  0  0  0  0
   -3.8656  -29.4367  -32.1349 H   0  0  0  0  0  0  0  0  0  0  0  0
   -4.4779  -30.9216  -31.3881 H   0  0  0  0  0  0  0  0  0  0  0  0
   -5.5116  -29.4918  -31.4868 H   0  0  0  0  0  0  0  0  0  0  0  0
   -4.8307  -28.5799  -34.2352 H   0  0  0  0  0  0  0  0  0  0  0  0
   -5.8886  -29.5471  -35.2535 H   0  0  0  0  0  0  0  0  0  0  0  0
   -6.5218  -28.7935  -33.7753 H   0  0  0  0  0  0  0  0  0  0  0  0
  -11.0124  -29.4262  -31.8198 H   0  0  0  0  0  0  0  0  0  0  0  0
  -11.7175  -27.8170  -32.0172 H   0  0  0  0  0  0  0  0  0  0  0  0
   -9.9775  -28.0954  -32.2805 H   0  0  0  0  0  0  0  0  0  0  0  0
  -12.1045  -30.8083  -33.5112 H   0  0  0  0  0  0  0  0  0  0  0  0
  -13.2900  -29.4923  -33.4286 H   0  0  0  0  0  0  0  0  0  0  0  0
  -12.7063  -30.0501  -34.9957 H   0  0  0  0  0  0  0  0  0  0  0  0
   -6.2132  -31.6728  -36.0562 H   0  0  0  0  0  0  0  0  0  0  0  0
   -7.3862  -32.9875  -36.2029 H   0  0  0  0  0  0  0  0  0  0  0  0
   -5.8981  -33.1878  -35.2439 H   0  0  0  0  0  0  0  0  0  0  0  0
   -9.2682  -33.1659  -34.2456 H   0  0  0  0  0  0  0  0  0  0  0  0
   -7.8078  -34.0781  -33.8225 H   0  0  0  0  0  0  0  0  0  0  0  0
   -8.5180  -32.9671  -32.6524 H   0  0  0  0  0  0  0  0  0  0  0  0
  -11.7750  -27.9130  -35.7736 H   0  0  0  0  0  0  0  0  0  0  0  0
  -12.7201  -27.3185  -34.4321 H   0  0  0  0  0  0  0  0  0  0  0  0
   -7.1146  -31.0204  -32.3729 H   0  0  0  0  0  0  0  0  0  0  0  0
   -6.0794  -32.4002  -32.6394 H   0  0  0  0  0  0  0  0  0  0  0  0
   -9.7522  -29.1032  -35.3820 H   0  0  0  0  0  0  0  0  0  0  0  0
   -8.1723  -30.4522  -35.5644 H   0  0  0  0  0  0  0  0  0  0  0  0
  1 18  1  0  0  0  0
  1 19  1  0  0  0  0
  1 20  2  0  0  0  0
  2 14  1  0  0  0  0
  3 14  1  0  0  0  0
  4 14  1  0  0  0  0
  5 15  1  0  0  0  0
  6 15  1  0  0  0  0
  7 15  1  0  0  0  0
  8 16  1  0  0  0  0
  9 16  1  0  0  0  0
 10 17  1  0  0  0  0
 11 17  1  0  0  0  0
 12 14  1  0  0  0  0
 12 16  1  0  0  0  0
 13 15  1  0  0  0  0
 13 17  1  0  0  0  0
 16 18  1  0  0  0  0
 17 19  1  0  0  0  0
  2 21  1  0  0  0  0
  2 22  1  0  0  0  0
  2 23  1  0  0  0  0
  3 24  1  0  0  0  0
  3 25  1  0  0  0  0
  3 26  1  0  0  0  0
  4 27  1  0  0  0  0
  4 28  1  0  0  0  0
  4 29  1  0  0  0  0
  5 30  1  0  0  0  0
  5 31  1  0  0  0  0
  5 32  1  0  0  0  0
  6 33  1  0  0  0  0
  6 34  1  0  0  0  0
  6 35  1  0  0  0  0
  7 36  1  0  0  0  0
  7 37  1  0  0  0  0
  7 38  1  0  0  0  0
  8 39  1  0  0  0  0
  8 40  1  0  0  0  0
  8 41  1  0  0  0  0
  9 42  1  0  0  0  0
  9 43  1  0  0  0  0
  9 44  1  0  0  0  0
 10 45  1  0  0  0  0
 10 46  1  0  0  0  0
 10 47  1  0  0  0  0
 11 48  1  0  0  0  0
 11 49  1  0  0  0  0
 11 50  1  0  0  0  0
 12 51  1  0  0  0  0
 12 52  1  0  0  0  0
 13 53  1  0  0  0  0
 13 54  1  0  0  0  0
 18 55  1  0  0  0  0
 19 56  1  0  0  0  0
M  END
> <Name>
IA_82.cdx

> <SourceTag>
IA_82

> <Gold.Version>
5.2

> <Gold.Id.Protein>
6HGV|6HGV_protein|mol2

> <Gold.Goldscore.Fitness>
50.3176

> <Gold.Goldscore.Internal.Vdw>
-10.6815

> <Gold.Goldscore.Internal.Torsion>
-5.7372

> <Gold.Goldscore.External.Vdw>
37.9766

> <Gold.Goldscore.Internal.HBond>
0.0000

> <Gold.Goldscore.External.HBond>
0.0000

> <Gold.Goldscore.Internal.Correction>
-14.5185

> <Gold.Goldscore.Internal.Vdw.Weighted>
-10.6815

> <Gold.Goldscore.Internal.Torsion.Weighted>
-5.7372

> <Gold.Goldscore.External.Vdw.Weighted>
52.2178

> <Gold.Goldscore.Internal.HBond.Weighted>
0.0000

> <Gold.Goldscore.External.HBond.Weighted>
0.0000

> <Gold.Goldscore.Internal.Correction.Weighted>
-14.5185

> <Gold.Protein.RotatedTorsions>
[ 3781 1176 1175 1172 ] final -150.38 input   60.00 | X-H torsion
[ 3847 1247 1246 1244 ] final   56.20 input   60.00 | X-H torsion
[ 4507 1931 1930 1928 ] final   94.03 input   60.00 | X-H torsion
[ 3677 1070 1069 1066 ] final  -81.46 input   60.00 | X-H torsion
[ 3525  925  924  922 ] final  146.77 input   59.99 | X-H torsion
[ 4531 1957 1955 1953 ] final   69.03 input   60.00 | X-H torsion

> <Gold.Protein.ActiveResidues>
 PHE267  PRO268  MET310  ASP335  TRP336  MET339  TYR343  THR360  PRO361  ILE363 
 PRO371  SER374  ILE375  ASN378  PHE381  TYR383  GLN384  PHE387  LEU408  LEU417 
 MET419  LEU428  TYR466  MET469  ASN472  ASP496  VAL498  LEU499  MET503  HIS524 
 TRP525 

> <Gold.Protein.RotatedAtoms>
   -2.0571  -30.2694  -29.9064 H   0  0  0  0  0  0  0  0  0  0  0  0  # atno 3525 bound_to 925 
  -12.0112  -23.8362  -31.3278 H   0  0  0  0  0  0  0  0  0  0  0  0  # atno 3677 bound_to 1070
   -9.2654  -36.3491  -33.3071 H   0  0  0  0  0  0  0  0  0  0  0  0  # atno 3781 bound_to 1176
  -14.8889  -28.9408  -37.2919 H   0  0  0  0  0  0  0  0  0  0  0  0  # atno 3847 bound_to 1247
  -12.4496  -24.2066  -39.0362 H   0  0  0  0  0  0  0  0  0  0  0  0  # atno 4507 bound_to 1931
   -3.0023  -33.5518  -36.6796 H   0  0  0  0  0  0  0  0  0  0  0  0  # atno 4531 bound_to 1957
  -10.2589  -37.3244  -32.4648 LP  0  0  0  0  0  0  0  0  0  0  0  0  # atno 5205 bound_to 1176
  -10.5919  -36.9633  -34.0221 LP  0  0  0  0  0  0  0  0  0  0  0  0  # atno 5206 bound_to 1176
  -16.0595  -27.8108  -37.2620 LP  0  0  0  0  0  0  0  0  0  0  0  0  # atno 5215 bound_to 1247
  -14.6182  -27.4794  -37.9545 LP  0  0  0  0  0  0  0  0  0  0  0  0  # atno 5216 bound_to 1247
  -13.5059  -25.3831  -39.4209 LP  0  0  0  0  0  0  0  0  0  0  0  0  # atno 5217 bound_to 1931
  -13.2437  -24.1470  -40.4553 LP  0  0  0  0  0  0  0  0  0  0  0  0  # atno 5218 bound_to 1931
  -11.1722  -22.4872  -30.9750 LP  0  0  0  0  0  0  0  0  0  0  0  0  # atno 5224 bound_to 1070
  -12.6702  -22.7043  -30.3621 LP  0  0  0  0  0  0  0  0  0  0  0  0  # atno 5225 bound_to 1070

$$$$
IA_105.cdx|SeH_inactivess_minimized|sdf|7|dock9
  -GOLD-   4172118393D 1   1.00000     0.00000

 60 59  0  0  0  0  0  0  0  0  1 V2000
  -16.9482  -25.6075  -36.4440 C   0  0  0  0  0  0  0  0  0  0  0  0
  -15.7407  -25.6549  -35.8623 C   0  0  0  0  0  0  0  0  0  0  0  0
   -6.4366  -29.8688  -34.7758 C   0  0  0  0  0  0  0  0  0  0  0  0
  -23.9626  -22.0739  -36.4571 C   0  0  0  0  0  0  0  0  0  0  0  0
   -3.8491  -31.8366  -34.5103 C   0  0  0  0  0  0  0  0  0  0  0  0
  -17.1689  -25.2326  -37.8807 C   0  0  0  0  0  0  0  0  0  0  0  0
  -14.4595  -25.3385  -36.5776 C   0  0  0  0  0  0  0  0  0  0  0  0
  -23.1556  -22.9593  -37.3942 C   0  0  0  0  0  0  0  0  0  0  0  0
  -18.6533  -25.1595  -38.2541 C   0  0  0  0  0  0  0  0  0  0  0  0
  -13.2160  -25.8176  -35.8203 C   0  0  0  0  0  0  0  0  0  0  0  0
  -21.6703  -23.0350  -37.0349 C   0  0  0  0  0  0  0  0  0  0  0  0
  -19.4152  -24.0785  -37.4810 C   0  0  0  0  0  0  0  0  0  0  0  0
  -11.8709  -25.4579  -36.4634 C   0  0  0  0  0  0  0  0  0  0  0  0
  -20.8911  -24.0411  -37.8850 C   0  0  0  0  0  0  0  0  0  0  0  0
  -10.6248  -25.9344  -35.7105 C   0  0  0  0  0  0  0  0  0  0  0  0
  -10.2719  -27.4150  -35.8811 C   0  0  0  0  0  0  0  0  0  0  0  0
   -9.1551  -27.8851  -34.9483 C   0  0  0  0  0  0  0  0  0  0  0  0
   -4.1589  -30.4848  -33.9635 C   0  0  0  0  0  0  0  0  0  0  0  0
   -8.8449  -29.3623  -35.1597 C   0  0  0  0  0  0  0  0  0  0  0  0
   -5.5805  -30.3133  -33.7717 N   0  0  0  0  0  0  0  0  0  0  0  0
   -7.7563  -29.7924  -34.3260 N   0  0  0  0  0  0  0  0  0  0  0  0
   -6.0799  -29.5794  -35.9172 O   0  0  0  0  0  0  0  0  0  0  0  0
  -17.8323  -25.8546  -35.8615 H   0  0  0  0  0  0  0  0  0  0  0  0
  -15.6620  -25.9334  -34.8144 H   0  0  0  0  0  0  0  0  0  0  0  0
  -25.0028  -22.0205  -36.7943 H   0  0  0  0  0  0  0  0  0  0  0  0
  -23.9571  -22.4725  -35.4378 H   0  0  0  0  0  0  0  0  0  0  0  0
  -23.5703  -21.0531  -36.4326 H   0  0  0  0  0  0  0  0  0  0  0  0
   -4.2176  -32.6223  -33.8419 H   0  0  0  0  0  0  0  0  0  0  0  0
   -4.2950  -31.9681  -35.5022 H   0  0  0  0  0  0  0  0  0  0  0  0
   -2.7637  -31.9580  -34.6081 H   0  0  0  0  0  0  0  0  0  0  0  0
  -16.6570  -25.9316  -38.5534 H   0  0  0  0  0  0  0  0  0  0  0  0
  -16.7155  -24.2482  -38.0479 H   0  0  0  0  0  0  0  0  0  0  0  0
  -14.3793  -24.2658  -36.7877 H   0  0  0  0  0  0  0  0  0  0  0  0
  -14.4853  -25.8395  -37.5532 H   0  0  0  0  0  0  0  0  0  0  0  0
  -23.2730  -22.6037  -38.4244 H   0  0  0  0  0  0  0  0  0  0  0  0
  -23.5727  -23.9729  -37.3598 H   0  0  0  0  0  0  0  0  0  0  0  0
  -19.1084  -26.1367  -38.0500 H   0  0  0  0  0  0  0  0  0  0  0  0
  -18.7562  -24.9828  -39.3322 H   0  0  0  0  0  0  0  0  0  0  0  0
  -13.2811  -26.9047  -35.6924 H   0  0  0  0  0  0  0  0  0  0  0  0
  -13.2318  -25.3962  -34.8064 H   0  0  0  0  0  0  0  0  0  0  0  0
  -21.2179  -22.0403  -37.1308 H   0  0  0  0  0  0  0  0  0  0  0  0
  -21.5876  -23.3187  -35.9783 H   0  0  0  0  0  0  0  0  0  0  0  0
  -19.3331  -24.2705  -36.4044 H   0  0  0  0  0  0  0  0  0  0  0  0
  -18.9683  -23.0962  -37.6714 H   0  0  0  0  0  0  0  0  0  0  0  0
  -11.8263  -24.3689  -36.5849 H   0  0  0  0  0  0  0  0  0  0  0  0
  -11.8361  -25.8652  -37.4812 H   0  0  0  0  0  0  0  0  0  0  0  0
  -21.3295  -25.0395  -37.7684 H   0  0  0  0  0  0  0  0  0  0  0  0
  -20.9653  -23.7741  -38.9451 H   0  0  0  0  0  0  0  0  0  0  0  0
   -9.7611  -25.3332  -36.0174 H   0  0  0  0  0  0  0  0  0  0  0  0
  -10.7691  -25.7263  -34.6427 H   0  0  0  0  0  0  0  0  0  0  0  0
   -9.9574  -27.5697  -36.9210 H   0  0  0  0  0  0  0  0  0  0  0  0
  -11.1638  -28.0347  -35.7348 H   0  0  0  0  0  0  0  0  0  0  0  0
   -8.2496  -27.2906  -35.1229 H   0  0  0  0  0  0  0  0  0  0  0  0
   -9.4407  -27.7251  -33.9022 H   0  0  0  0  0  0  0  0  0  0  0  0
   -3.8185  -29.7055  -34.6520 H   0  0  0  0  0  0  0  0  0  0  0  0
   -3.6717  -30.3369  -32.9953 H   0  0  0  0  0  0  0  0  0  0  0  0
   -8.5598  -29.5598  -36.1978 H   0  0  0  0  0  0  0  0  0  0  0  0
   -9.7114  -29.9846  -34.9145 H   0  0  0  0  0  0  0  0  0  0  0  0
   -5.9743  -30.5272  -32.8607 H   0  0  0  0  0  0  0  0  0  0  0  0
   -7.9595  -30.0983  -33.3759 H   0  0  0  0  0  0  0  0  0  0  0  0
  1  2  2  0  0  0  0
  1  6  1  0  0  0  0
  2  7  1  0  0  0  0
  3 20  1  0  0  0  0
  3 21  1  0  0  0  0
  3 22  2  0  0  0  0
  4  8  1  0  0  0  0
  5 18  1  0  0  0  0
  6  9  1  0  0  0  0
  7 10  1  0  0  0  0
  8 11  1  0  0  0  0
  9 12  1  0  0  0  0
 10 13  1  0  0  0  0
 11 14  1  0  0  0  0
 12 14  1  0  0  0  0
 13 15  1  0  0  0  0
 15 16  1  0  0  0  0
 16 17  1  0  0  0  0
 17 19  1  0  0  0  0
 18 20  1  0  0  0  0
 19 21  1  0  0  0  0
  1 23  1  0  0  0  0
  2 24  1  0  0  0  0
  4 25  1  0  0  0  0
  4 26  1  0  0  0  0
  4 27  1  0  0  0  0
  5 28  1  0  0  0  0
  5 29  1  0  0  0  0
  5 30  1  0  0  0  0
  6 31  1  0  0  0  0
  6 32  1  0  0  0  0
  7 33  1  0  0  0  0
  7 34  1  0  0  0  0
  8 35  1  0  0  0  0
  8 36  1  0  0  0  0
  9 37  1  0  0  0  0
  9 38  1  0  0  0  0
 10 39  1  0  0  0  0
 10 40  1  0  0  0  0
 11 41  1  0  0  0  0
 11 42  1  0  0  0  0
 12 43  1  0  0  0  0
 12 44  1  0  0  0  0
 13 45  1  0  0  0  0
 13 46  1  0  0  0  0
 14 47  1  0  0  0  0
 14 48  1  0  0  0  0
 15 49  1  0  0  0  0
 15 50  1  0  0  0  0
 16 51  1  0  0  0  0
 16 52  1  0  0  0  0
 17 53  1  0  0  0  0
 17 54  1  0  0  0  0
 18 55  1  0  0  0  0
 18 56  1  0  0  0  0
 19 57  1  0  0  0  0
 19 58  1  0  0  0  0
 20 59  1  0  0  0  0
 21 60  1  0  0  0  0
M  END
> <Name>
IA_105.cdx

> <SourceTag>
IA_105

> <Gold.Version>
5.2

> <Gold.Id.Protein>
6HGV|6HGV_protein|mol2

> <Gold.Goldscore.Fitness>
70.9088

> <Gold.Goldscore.Internal.Vdw>
-5.2394

> <Gold.Goldscore.Internal.Torsion>
-5.1946

> <Gold.Goldscore.External.Vdw>
52.1335

> <Gold.Goldscore.Internal.HBond>
0.0000

> <Gold.Goldscore.External.HBond>
0.3994

> <Gold.Goldscore.Internal.Correction>
-9.2599

> <Gold.Goldscore.Hbonds>
donor molecule, donor type, donor heavy atom, donor atom, acceptor molecule, acceptor atom, score
      P1  H  1994  4571       L1    22  0.20

> <Gold.Goldscore.Internal.Vdw.Weighted>
-5.2394

> <Gold.Goldscore.Internal.Torsion.Weighted>
-5.1946

> <Gold.Goldscore.External.Vdw.Weighted>
71.6835

> <Gold.Goldscore.Internal.HBond.Weighted>
0.0000

> <Gold.Goldscore.External.HBond.Weighted>
0.3994

> <Gold.Goldscore.Internal.Correction.Weighted>
-9.2599

> <Gold.Protein.RotatedTorsions>
[ 3781 1176 1175 1172 ] final   41.11 input   60.00 | X-H torsion
[ 3847 1247 1246 1244 ] final  -19.71 input   60.00 | X-H torsion
[ 4507 1931 1930 1928 ] final  -52.90 input   60.00 | X-H torsion
[ 3677 1070 1069 1066 ] final  -98.92 input   60.00 | X-H torsion
[ 3525  925  924  922 ] final    5.14 input   59.99 | X-H torsion
[ 4531 1957 1955 1953 ] final   99.94 input   60.00 | X-H torsion

> <Gold.Protein.ActiveResidues>
 PHE267  PRO268  MET310  ASP335  TRP336  MET339  TYR343  THR360  PRO361  ILE363 
 PRO371  SER374  ILE375  ASN378  PHE381  TYR383  GLN384  PHE387  LEU408  LEU417 
 MET419  LEU428  TYR466  MET469  ASN472  ASP496  VAL498  LEU499  MET503  HIS524 
 TRP525 

> <Gold.Protein.RotatedAtoms>
   -3.5479  -29.5613  -30.5418 H   0  0  0  0  0  0  0  0  0  0  0  0  # atno 3525 bound_to 925 
  -11.7507  -23.7609  -31.4130 H   0  0  0  0  0  0  0  0  0  0  0  0  # atno 3677 bound_to 1070
  -10.7533  -37.4395  -33.0464 H   0  0  0  0  0  0  0  0  0  0  0  0  # atno 3781 bound_to 1176
  -15.9171  -28.4735  -37.0671 H   0  0  0  0  0  0  0  0  0  0  0  0  # atno 3847 bound_to 1247
  -13.6605  -25.2775  -39.8164 H   0  0  0  0  0  0  0  0  0  0  0  0  # atno 4507 bound_to 1931
   -2.6745  -33.9217  -36.7483 H   0  0  0  0  0  0  0  0  0  0  0  0  # atno 4531 bound_to 1957
   -9.9732  -36.5099  -34.1305 LP  0  0  0  0  0  0  0  0  0  0  0  0  # atno 5205 bound_to 1176
   -9.3792  -36.6798  -32.6189 LP  0  0  0  0  0  0  0  0  0  0  0  0  # atno 5206 bound_to 1176
  -15.2501  -27.1922  -37.8163 LP  0  0  0  0  0  0  0  0  0  0  0  0  # atno 5215 bound_to 1247
  -14.3920  -28.5686  -37.6266 LP  0  0  0  0  0  0  0  0  0  0  0  0  # atno 5216 bound_to 1247
  -12.9475  -23.8851  -40.2645 LP  0  0  0  0  0  0  0  0  0  0  0  0  # atno 5217 bound_to 1931
  -12.5826  -24.5666  -38.8261 LP  0  0  0  0  0  0  0  0  0  0  0  0  # atno 5218 bound_to 1931
  -11.3221  -22.3144  -30.8029 LP  0  0  0  0  0  0  0  0  0  0  0  0  # atno 5224 bound_to 1070
  -12.7827  -22.9529  -30.4484 LP  0  0  0  0  0  0  0  0  0  0  0  0  # atno 5225 bound_to 1070

$$$$
IA_211.cdx|SeH_inactivess_minimized|sdf|109|dock5
  -GOLD-   4172120573D 1   1.00000     0.00000

 29 29  0  0  0  0  0  0  0  0  1 V2000
   -8.9245  -28.1008  -35.2514 C   0  0  0  0  0  0  0  0  0  0  0  0
  -12.5274  -25.7520  -34.7797 C   0  0  0  0  0  0  0  0  0  0  0  0
  -11.6737  -24.9506  -33.8008 C   0  0  0  0  0  0  0  0  0  0  0  0
  -11.9273  -25.8313  -36.1820 C   0  0  0  0  0  0  0  0  0  0  0  0
  -10.3083  -25.5578  -33.4906 C   0  0  0  0  0  0  0  0  0  0  0  0
  -10.9197  -26.9680  -36.3500 C   0  0  0  0  0  0  0  0  0  0  0  0
   -9.4269  -25.7487  -34.7208 C   0  0  0  0  0  0  0  0  0  0  0  0
   -8.7777  -32.2011  -35.7895 C   0  0  0  0  0  0  0  0  0  0  0  0
   -8.4527  -30.8208  -35.2509 C   0  0  0  0  0  0  0  0  0  0  0  0
   -9.7587  -26.9789  -35.4458 N   0  0  0  0  0  0  0  0  0  0  0  0
   -7.9540  -28.1128  -34.4970 O   0  0  0  0  0  0  0  0  0  0  0  0
   -9.3273  -29.5510  -36.1909 S   0  0  0  0  0  0  0  0  0  0  0  0
  -12.7225  -26.7555  -34.3836 H   0  0  0  0  0  0  0  0  0  0  0  0
  -13.5010  -25.2511  -34.8537 H   0  0  0  0  0  0  0  0  0  0  0  0
  -11.5373  -23.9326  -34.1874 H   0  0  0  0  0  0  0  0  0  0  0  0
  -12.2272  -24.8484  -32.8592 H   0  0  0  0  0  0  0  0  0  0  0  0
  -12.7429  -26.0120  -36.8940 H   0  0  0  0  0  0  0  0  0  0  0  0
  -11.4859  -24.8700  -36.4687 H   0  0  0  0  0  0  0  0  0  0  0  0
   -9.7951  -24.8791  -32.7983 H   0  0  0  0  0  0  0  0  0  0  0  0
  -10.4375  -26.5098  -32.9616 H   0  0  0  0  0  0  0  0  0  0  0  0
  -11.4570  -27.9159  -36.2351 H   0  0  0  0  0  0  0  0  0  0  0  0
  -10.5235  -26.9421  -37.3721 H   0  0  0  0  0  0  0  0  0  0  0  0
   -9.4742  -24.8965  -35.4070 H   0  0  0  0  0  0  0  0  0  0  0  0
   -8.3850  -25.8059  -34.3852 H   0  0  0  0  0  0  0  0  0  0  0  0
   -8.1905  -32.9772  -35.2868 H   0  0  0  0  0  0  0  0  0  0  0  0
   -9.8406  -32.4384  -35.6735 H   0  0  0  0  0  0  0  0  0  0  0  0
   -8.5426  -32.2490  -36.8580 H   0  0  0  0  0  0  0  0  0  0  0  0
   -7.3771  -30.6311  -35.3182 H   0  0  0  0  0  0  0  0  0  0  0  0
   -8.7461  -30.7455  -34.1995 H   0  0  0  0  0  0  0  0  0  0  0  0
  1 10  1  0  0  0  0
  1 11  2  0  0  0  0
  1 12  1  0  0  0  0
  2  3  1  0  0  0  0
  2  4  1  0  0  0  0
  3  5  1  0  0  0  0
  4  6  1  0  0  0  0
  5  7  1  0  0  0  0
  6 10  1  0  0  0  0
  7 10  1  0  0  0  0
  8  9  1  0  0  0  0
  9 12  1  0  0  0  0
  2 13  1  0  0  0  0
  2 14  1  0  0  0  0
  3 15  1  0  0  0  0
  3 16  1  0  0  0  0
  4 17  1  0  0  0  0
  4 18  1  0  0  0  0
  5 19  1  0  0  0  0
  5 20  1  0  0  0  0
  6 21  1  0  0  0  0
  6 22  1  0  0  0  0
  7 23  1  0  0  0  0
  7 24  1  0  0  0  0
  8 25  1  0  0  0  0
  8 26  1  0  0  0  0
  8 27  1  0  0  0  0
  9 28  1  0  0  0  0
  9 29  1  0  0  0  0
M  END
> <Name>
IA_211.cdx

> <SourceTag>
IA_211

> <Gold.Version>
5.2

> <Gold.Id.Protein>
6HGV|6HGV_protein|mol2

> <Gold.Goldscore.Fitness>
43.2457

> <Gold.Goldscore.Internal.Vdw>
-0.7598

> <Gold.Goldscore.Internal.Torsion>
-0.2971

> <Gold.Goldscore.External.Vdw>
31.5962

> <Gold.Goldscore.Internal.HBond>
0.0000

> <Gold.Goldscore.External.HBond>
0.0000

> <Gold.Goldscore.Internal.Correction>
-0.8578

> <Gold.Goldscore.Internal.Vdw.Weighted>
-0.7598

> <Gold.Goldscore.Internal.Torsion.Weighted>
-0.2971

> <Gold.Goldscore.External.Vdw.Weighted>
43.4447

> <Gold.Goldscore.Internal.HBond.Weighted>
0.0000

> <Gold.Goldscore.External.HBond.Weighted>
0.0000

> <Gold.Goldscore.Internal.Correction.Weighted>
-0.8578

> <Gold.Protein.RotatedTorsions>
[ 3781 1176 1175 1172 ] final -133.13 input   60.00 | X-H torsion
[ 3847 1247 1246 1244 ] final  148.17 input   60.00 | X-H torsion
[ 4507 1931 1930 1928 ] final   -7.59 input   60.00 | X-H torsion
[ 3677 1070 1069 1066 ] final -167.34 input   60.00 | X-H torsion
[ 3525  925  924  922 ] final  154.24 input   59.99 | X-H torsion
[ 4531 1957 1955 1953 ] final -171.26 input   60.00 | X-H torsion

> <Gold.Protein.ActiveResidues>
 PHE267  PRO268  MET310  ASP335  TRP336  MET339  TYR343  THR360  PRO361  ILE363 
 PRO371  SER374  ILE375  ASN378  PHE381  TYR383  GLN384  PHE387  LEU408  LEU417 
 MET419  LEU428  TYR466  MET469  ASN472  ASP496  VAL498  LEU499  MET503  HIS524 
 TRP525 

> <Gold.Protein.RotatedAtoms>
   -2.0722  -30.2738  -29.7856 H   0  0  0  0  0  0  0  0  0  0  0  0  # atno 3525 bound_to 925 
  -11.0984  -22.9469  -31.2701 H   0  0  0  0  0  0  0  0  0  0  0  0  # atno 3677 bound_to 1070
   -9.3567  -36.3115  -33.5701 H   0  0  0  0  0  0  0  0  0  0  0  0  # atno 3781 bound_to 1176
  -14.3732  -27.8599  -37.9077 H   0  0  0  0  0  0  0  0  0  0  0  0  # atno 3847 bound_to 1247
  -13.3348  -25.3480  -39.1769 H   0  0  0  0  0  0  0  0  0  0  0  0  # atno 4507 bound_to 1931
   -1.4147  -33.6495  -36.9831 H   0  0  0  0  0  0  0  0  0  0  0  0  # atno 4531 bound_to 1957
  -10.0211  -37.1982  -32.3783 LP  0  0  0  0  0  0  0  0  0  0  0  0  # atno 5205 bound_to 1176
  -10.7378  -37.1274  -33.8438 LP  0  0  0  0  0  0  0  0  0  0  0  0  # atno 5206 bound_to 1176
  -15.3123  -28.9343  -37.1255 LP  0  0  0  0  0  0  0  0  0  0  0  0  # atno 5215 bound_to 1247
  -15.8847  -27.4444  -37.4708 LP  0  0  0  0  0  0  0  0  0  0  0  0  # atno 5216 bound_to 1247
  -13.4273  -24.3838  -40.4845 LP  0  0  0  0  0  0  0  0  0  0  0  0  # atno 5217 bound_to 1931
  -12.4308  -23.9969  -39.2501 LP  0  0  0  0  0  0  0  0  0  0  0  0  # atno 5218 bound_to 1931
  -12.2744  -22.3187  -30.3371 LP  0  0  0  0  0  0  0  0  0  0  0  0  # atno 5224 bound_to 1070
  -12.4872  -23.7683  -31.0581 LP  0  0  0  0  0  0  0  0  0  0  0  0  # atno 5225 bound_to 1070

$$$$
IA_103.cdx|SeH_inactivess_minimized|sdf|5|dock4
  -GOLD-   4172118293D 1   1.00000     0.00000

 65 64  0  0  0  0  0  0  0  0  1 V2000
  -21.1021  -25.1817  -36.0335 C   0  0  0  0  0  0  0  0  0  0  0  0
   -3.5894  -33.3288  -32.2869 C   0  0  0  0  0  0  0  0  0  0  0  0
  -24.1815  -22.9226  -35.2682 C   0  0  0  0  0  0  0  0  0  0  0  0
   -4.6045  -33.0391  -33.3815 C   0  0  0  0  0  0  0  0  0  0  0  0
  -24.3794  -24.3340  -34.7338 C   0  0  0  0  0  0  0  0  0  0  0  0
   -4.1128  -32.0247  -34.4166 C   0  0  0  0  0  0  0  0  0  0  0  0
   -5.1938  -31.4230  -35.3212 C   0  0  0  0  0  0  0  0  0  0  0  0
   -6.0915  -30.3650  -34.6726 C   0  0  0  0  0  0  0  0  0  0  0  0
   -7.2875  -29.9668  -35.5410 C   0  0  0  0  0  0  0  0  0  0  0  0
   -8.1458  -28.9074  -34.8454 C   0  0  0  0  0  0  0  0  0  0  0  0
   -9.2864  -28.3753  -35.7188 C   0  0  0  0  0  0  0  0  0  0  0  0
  -10.1182  -27.2396  -35.1147 C   0  0  0  0  0  0  0  0  0  0  0  0
  -11.1924  -26.6995  -36.0607 C   0  0  0  0  0  0  0  0  0  0  0  0
  -12.3751  -26.1192  -35.2818 C   0  0  0  0  0  0  0  0  0  0  0  0
  -13.6124  -25.9790  -36.1718 C   0  0  0  0  0  0  0  0  0  0  0  0
  -14.8651  -25.7015  -35.3381 C   0  0  0  0  0  0  0  0  0  0  0  0
  -16.1390  -25.5627  -36.1775 C   0  0  0  0  0  0  0  0  0  0  0  0
  -17.4153  -25.4684  -35.3346 C   0  0  0  0  0  0  0  0  0  0  0  0
  -23.5240  -25.3645  -35.4609 C   0  0  0  0  0  0  0  0  0  0  0  0
  -18.6202  -25.0060  -36.1490 C   0  0  0  0  0  0  0  0  0  0  0  0
  -22.1285  -25.2763  -35.0976 N   0  0  0  0  0  0  0  0  0  0  0  0
  -19.8514  -25.1099  -35.4160 N   0  0  0  0  0  0  0  0  0  0  0  0
  -21.2706  -25.1628  -37.2521 O   0  0  0  0  0  0  0  0  0  0  0  0
   -3.3145  -32.4132  -31.7540 H   0  0  0  0  0  0  0  0  0  0  0  0
   -2.6791  -33.7536  -32.7220 H   0  0  0  0  0  0  0  0  0  0  0  0
   -3.9768  -34.0492  -31.5606 H   0  0  0  0  0  0  0  0  0  0  0  0
  -24.7503  -22.1966  -34.6785 H   0  0  0  0  0  0  0  0  0  0  0  0
  -23.1237  -22.6454  -35.2171 H   0  0  0  0  0  0  0  0  0  0  0  0
  -24.4990  -22.8432  -36.3126 H   0  0  0  0  0  0  0  0  0  0  0  0
   -5.5435  -32.7008  -32.9299 H   0  0  0  0  0  0  0  0  0  0  0  0
   -4.8330  -33.9777  -33.9009 H   0  0  0  0  0  0  0  0  0  0  0  0
  -25.4350  -24.6067  -34.8473 H   0  0  0  0  0  0  0  0  0  0  0  0
  -24.1543  -24.3477  -33.6608 H   0  0  0  0  0  0  0  0  0  0  0  0
   -3.3441  -32.5017  -35.0362 H   0  0  0  0  0  0  0  0  0  0  0  0
   -3.6072  -31.2028  -33.8938 H   0  0  0  0  0  0  0  0  0  0  0  0
   -5.8239  -32.2410  -35.6933 H   0  0  0  0  0  0  0  0  0  0  0  0
   -4.7207  -30.9827  -36.2071 H   0  0  0  0  0  0  0  0  0  0  0  0
   -6.4423  -30.7170  -33.6956 H   0  0  0  0  0  0  0  0  0  0  0  0
   -5.4794  -29.4756  -34.4766 H   0  0  0  0  0  0  0  0  0  0  0  0
   -7.8975  -30.8513  -35.7490 H   0  0  0  0  0  0  0  0  0  0  0  0
   -6.9314  -29.5790  -36.5027 H   0  0  0  0  0  0  0  0  0  0  0  0
   -8.5477  -29.3111  -33.9089 H   0  0  0  0  0  0  0  0  0  0  0  0
   -7.5102  -28.0579  -34.5646 H   0  0  0  0  0  0  0  0  0  0  0  0
   -9.9613  -29.2050  -35.9635 H   0  0  0  0  0  0  0  0  0  0  0  0
   -8.8613  -28.0345  -36.6712 H   0  0  0  0  0  0  0  0  0  0  0  0
   -9.4611  -26.4232  -34.7932 H   0  0  0  0  0  0  0  0  0  0  0  0
  -10.5999  -27.6202  -34.2052 H   0  0  0  0  0  0  0  0  0  0  0  0
  -10.7700  -25.9176  -36.7017 H   0  0  0  0  0  0  0  0  0  0  0  0
  -11.5438  -27.5051  -36.7165 H   0  0  0  0  0  0  0  0  0  0  0  0
  -12.1014  -25.1374  -34.8765 H   0  0  0  0  0  0  0  0  0  0  0  0
  -12.6074  -26.7685  -34.4289 H   0  0  0  0  0  0  0  0  0  0  0  0
  -13.7527  -26.8988  -36.7522 H   0  0  0  0  0  0  0  0  0  0  0  0
  -13.4478  -25.1648  -36.8863 H   0  0  0  0  0  0  0  0  0  0  0  0
  -15.0123  -26.5263  -34.6298 H   0  0  0  0  0  0  0  0  0  0  0  0
  -14.7187  -24.7943  -34.7393 H   0  0  0  0  0  0  0  0  0  0  0  0
  -16.2020  -26.4356  -36.8382 H   0  0  0  0  0  0  0  0  0  0  0  0
  -16.0577  -24.6817  -36.8258 H   0  0  0  0  0  0  0  0  0  0  0  0
  -17.2643  -24.7526  -34.5192 H   0  0  0  0  0  0  0  0  0  0  0  0
  -17.6281  -26.4427  -34.8781 H   0  0  0  0  0  0  0  0  0  0  0  0
  -23.8577  -26.3753  -35.2058 H   0  0  0  0  0  0  0  0  0  0  0  0
  -23.5958  -25.2458  -36.5466 H   0  0  0  0  0  0  0  0  0  0  0  0
  -18.5022  -23.9535  -36.4255 H   0  0  0  0  0  0  0  0  0  0  0  0
  -18.7262  -25.5899  -37.0687 H   0  0  0  0  0  0  0  0  0  0  0  0
  -21.8845  -25.2836  -34.1121 H   0  0  0  0  0  0  0  0  0  0  0  0
  -19.8182  -25.0860  -34.3982 H   0  0  0  0  0  0  0  0  0  0  0  0
  1 21  1  0  0  0  0
  1 22  1  0  0  0  0
  1 23  2  0  0  0  0
  2  4  1  0  0  0  0
  3  5  1  0  0  0  0
  4  6  1  0  0  0  0
  5 19  1  0  0  0  0
  6  7  1  0  0  0  0
  7  8  1  0  0  0  0
  8  9  1  0  0  0  0
  9 10  1  0  0  0  0
 10 11  1  0  0  0  0
 11 12  1  0  0  0  0
 12 13  1  0  0  0  0
 13 14  1  0  0  0  0
 14 15  1  0  0  0  0
 15 16  1  0  0  0  0
 16 17  1  0  0  0  0
 17 18  1  0  0  0  0
 18 20  1  0  0  0  0
 19 21  1  0  0  0  0
 20 22  1  0  0  0  0
  2 24  1  0  0  0  0
  2 25  1  0  0  0  0
  2 26  1  0  0  0  0
  3 27  1  0  0  0  0
  3 28  1  0  0  0  0
  3 29  1  0  0  0  0
  4 30  1  0  0  0  0
  4 31  1  0  0  0  0
  5 32  1  0  0  0  0
  5 33  1  0  0  0  0
  6 34  1  0  0  0  0
  6 35  1  0  0  0  0
  7 36  1  0  0  0  0
  7 37  1  0  0  0  0
  8 38  1  0  0  0  0
  8 39  1  0  0  0  0
  9 40  1  0  0  0  0
  9 41  1  0  0  0  0
 10 42  1  0  0  0  0
 10 43  1  0  0  0  0
 11 44  1  0  0  0  0
 11 45  1  0  0  0  0
 12 46  1  0  0  0  0
 12 47  1  0  0  0  0
 13 48  1  0  0  0  0
 13 49  1  0  0  0  0
 14 50  1  0  0  0  0
 14 51  1  0  0  0  0
 15 52  1  0  0  0  0
 15 53  1  0  0  0  0
 16 54  1  0  0  0  0
 16 55  1  0  0  0  0
 17 56  1  0  0  0  0
 17 57  1  0  0  0  0
 18 58  1  0  0  0  0
 18 59  1  0  0  0  0
 19 60  1  0  0  0  0
 19 61  1  0  0  0  0
 20 62  1  0  0  0  0
 20 63  1  0  0  0  0
 21 64  1  0  0  0  0
 22 65  1  0  0  0  0
M  END
> <Name>
IA_103.cdx

> <SourceTag>
IA_103

> <Gold.Version>
5.2

> <Gold.Id.Protein>
6HGV|6HGV_protein|mol2

> <Gold.Goldscore.Fitness>
71.8700

> <Gold.Goldscore.Internal.Vdw>
-8.5745

> <Gold.Goldscore.Internal.Torsion>
-5.7288

> <Gold.Goldscore.External.Vdw>
54.2951

> <Gold.Goldscore.Internal.HBond>
0.0000

> <Gold.Goldscore.External.HBond>
3.6573

> <Gold.Goldscore.Internal.Correction>
-7.8602

> <Gold.Goldscore.Hbonds>
donor molecule, donor type, donor heavy atom, donor atom, acceptor molecule, acceptor atom, score
      L1  H    21    64       P1  2185  0.04
      L1  H    22    65       P1  2185  0.57

> <Gold.Goldscore.Internal.Vdw.Weighted>
-8.5745

> <Gold.Goldscore.Internal.Torsion.Weighted>
-5.7288

> <Gold.Goldscore.External.Vdw.Weighted>
74.6558

> <Gold.Goldscore.Internal.HBond.Weighted>
0.0000

> <Gold.Goldscore.External.HBond.Weighted>
3.6573

> <Gold.Goldscore.Internal.Correction.Weighted>
-7.8602

> <Gold.Protein.RotatedTorsions>
[ 3781 1176 1175 1172 ] final  128.02 input   60.00 | X-H torsion
[ 3847 1247 1246 1244 ] final   29.13 input   60.00 | X-H torsion
[ 4507 1931 1930 1928 ] final  -25.66 input   60.00 | X-H torsion
[ 3677 1070 1069 1066 ] final  -59.61 input   60.00 | X-H torsion
[ 3525  925  924  922 ] final   31.62 input   59.99 | X-H torsion
[ 4531 1957 1955 1953 ] final  114.82 input   60.00 | X-H torsion

> <Gold.Protein.ActiveResidues>
 PHE267  PRO268  MET310  ASP335  TRP336  MET339  TYR343  THR360  PRO361  ILE363 
 PRO371  SER374  ILE375  ASN378  PHE381  TYR383  GLN384  PHE387  LEU408  LEU417 
 MET419  LEU428  TYR466  MET469  ASN472  ASP496  VAL498  LEU499  MET503  HIS524 
 TRP525 

> <Gold.Protein.RotatedAtoms>
   -3.2230  -29.6797  -30.7957 H   0  0  0  0  0  0  0  0  0  0  0  0  # atno 3525 bound_to 925 
  -12.3265  -23.8233  -31.1655 H   0  0  0  0  0  0  0  0  0  0  0  0  # atno 3677 bound_to 1070
   -9.7346  -37.0064  -32.3881 H   0  0  0  0  0  0  0  0  0  0  0  0  # atno 3781 bound_to 1176
  -15.2977  -28.9329  -37.1344 H   0  0  0  0  0  0  0  0  0  0  0  0  # atno 3847 bound_to 1247
  -13.4986  -25.3788  -39.4190 H   0  0  0  0  0  0  0  0  0  0  0  0  # atno 4507 bound_to 1931
   -2.4590  -34.0240  -36.7910 H   0  0  0  0  0  0  0  0  0  0  0  0  # atno 4531 bound_to 1957
  -10.8297  -37.2964  -33.5563 LP  0  0  0  0  0  0  0  0  0  0  0  0  # atno 5205 bound_to 1176
   -9.5485  -36.3294  -33.8561 LP  0  0  0  0  0  0  0  0  0  0  0  0  # atno 5206 bound_to 1176
  -15.8937  -27.4549  -37.4632 LP  0  0  0  0  0  0  0  0  0  0  0  0  # atno 5215 bound_to 1247
  -14.3723  -27.8433  -37.9118 LP  0  0  0  0  0  0  0  0  0  0  0  0  # atno 5216 bound_to 1247
  -13.2470  -24.1507  -40.4565 LP  0  0  0  0  0  0  0  0  0  0  0  0  # atno 5217 bound_to 1931
  -12.4461  -24.1989  -39.0342 LP  0  0  0  0  0  0  0  0  0  0  0  0  # atno 5218 bound_to 1931
  -11.0869  -22.7690  -31.1774 LP  0  0  0  0  0  0  0  0  0  0  0  0  # atno 5224 bound_to 1070
  -12.4380  -22.4354  -30.3232 LP  0  0  0  0  0  0  0  0  0  0  0  0  # atno 5225 bound_to 1070

$$$$
IA_136.cdx|SeH_inactivess_minimized|sdf|38|dock8
  -GOLD-   4172119263D 1   1.00000     0.00000

 38 39  0  0  0  0  0  0  0  0  1 V2000
  -20.1807  -23.9699  -37.0955 C   0  0  0  0  0  0  0  0  0  0  0  0
  -19.5877  -23.5824  -38.2934 C   0  0  0  0  0  0  0  0  0  0  0  0
  -19.4074  -24.5463  -36.0875 C   0  0  0  0  0  0  0  0  0  0  0  0
  -18.2189  -23.7699  -38.4879 C   0  0  0  0  0  0  0  0  0  0  0  0
  -17.2346  -25.3213  -35.2623 C   0  0  0  0  0  0  0  0  0  0  0  0
  -15.8658  -25.5089  -35.4568 C   0  0  0  0  0  0  0  0  0  0  0  0
  -16.0461  -24.5449  -37.6627 C   0  0  0  0  0  0  0  0  0  0  0  0
  -18.0283  -24.7426  -36.2661 C   0  0  0  0  0  0  0  0  0  0  0  0
  -17.4251  -24.3486  -37.4842 C   0  0  0  0  0  0  0  0  0  0  0  0
  -15.2728  -25.1214  -36.6546 C   0  0  0  0  0  0  0  0  0  0  0  0
  -13.0724  -26.3132  -36.3103 C   0  0  0  0  0  0  0  0  0  0  0  0
   -8.7871  -28.5365  -34.8376 C   0  0  0  0  0  0  0  0  0  0  0  0
  -11.1349  -25.2599  -33.6564 C   0  0  0  0  0  0  0  0  0  0  0  0
  -10.6810  -27.0401  -36.3548 C   0  0  0  0  0  0  0  0  0  0  0  0
   -9.8147  -26.4380  -35.2474 C   0  0  0  0  0  0  0  0  0  0  0  0
  -13.9037  -25.3099  -36.8479 N   0  0  0  0  0  0  0  0  0  0  0  0
  -11.7532  -26.1548  -36.7471 N   0  0  0  0  0  0  0  0  0  0  0  0
  -13.4266  -27.2179  -35.5581 O   0  0  0  0  0  0  0  0  0  0  0  0
   -8.5867  -27.1785  -35.2067 O   0  0  0  0  0  0  0  0  0  0  0  0
  -10.5037  -26.4872  -33.9946 O   0  0  0  0  0  0  0  0  0  0  0  0
  -21.2463  -23.8230  -36.9445 H   0  0  0  0  0  0  0  0  0  0  0  0
  -20.1904  -23.1340  -39.0778 H   0  0  0  0  0  0  0  0  0  0  0  0
  -19.8923  -24.8417  -35.1594 H   0  0  0  0  0  0  0  0  0  0  0  0
  -17.7766  -23.4601  -39.4324 H   0  0  0  0  0  0  0  0  0  0  0  0
  -17.6770  -25.6320  -34.3181 H   0  0  0  0  0  0  0  0  0  0  0  0
  -15.2729  -25.9592  -34.6645 H   0  0  0  0  0  0  0  0  0  0  0  0
  -15.5718  -24.2456  -38.5964 H   0  0  0  0  0  0  0  0  0  0  0  0
   -9.4642  -28.5861  -33.9813 H   0  0  0  0  0  0  0  0  0  0  0  0
   -7.8264  -28.9913  -34.5829 H   0  0  0  0  0  0  0  0  0  0  0  0
   -9.2295  -29.0724  -35.6806 H   0  0  0  0  0  0  0  0  0  0  0  0
  -11.7642  -25.4038  -32.7746 H   0  0  0  0  0  0  0  0  0  0  0  0
  -11.7417  -24.9171  -34.4982 H   0  0  0  0  0  0  0  0  0  0  0  0
  -10.3673  -24.5143  -33.4357 H   0  0  0  0  0  0  0  0  0  0  0  0
  -10.0962  -27.2446  -37.2558 H   0  0  0  0  0  0  0  0  0  0  0  0
  -11.1483  -27.9706  -36.0168 H   0  0  0  0  0  0  0  0  0  0  0  0
   -9.5760  -25.3992  -35.5123 H   0  0  0  0  0  0  0  0  0  0  0  0
  -13.4280  -24.6382  -37.4592 H   0  0  0  0  0  0  0  0  0  0  0  0
  -11.5391  -25.3815  -37.3689 H   0  0  0  0  0  0  0  0  0  0  0  0
  1  2  1  0  0  0  0
  1  3  2  0  0  0  0
  2  4  2  0  0  0  0
  3  8  1  0  0  0  0
  4  9  1  0  0  0  0
  5  6  1  0  0  0  0
  5  8  2  0  0  0  0
  6 10  2  0  0  0  0
  7  9  2  0  0  0  0
  7 10  1  0  0  0  0
  8  9  1  0  0  0  0
 10 16  1  0  0  0  0
 11 16  1  0  0  0  0
 11 17  1  0  0  0  0
 11 18  2  0  0  0  0
 12 19  1  0  0  0  0
 13 20  1  0  0  0  0
 14 15  1  0  0  0  0
 14 17  1  0  0  0  0
 15 19  1  0  0  0  0
 15 20  1  0  0  0  0
  1 21  1  0  0  0  0
  2 22  1  0  0  0  0
  3 23  1  0  0  0  0
  4 24  1  0  0  0  0
  5 25  1  0  0  0  0
  6 26  1  0  0  0  0
  7 27  1  0  0  0  0
 12 28  1  0  0  0  0
 12 29  1  0  0  0  0
 12 30  1  0  0  0  0
 13 31  1  0  0  0  0
 13 32  1  0  0  0  0
 13 33  1  0  0  0  0
 14 34  1  0  0  0  0
 14 35  1  0  0  0  0
 15 36  1  0  0  0  0
 16 37  1  0  0  0  0
 17 38  1  0  0  0  0
M  END
> <Name>
IA_136.cdx

> <SourceTag>
IA_136

> <Gold.Version>
5.2

> <Gold.Id.Protein>
6HGV|6HGV_protein|mol2

> <Gold.Goldscore.Fitness>
58.6203

> <Gold.Goldscore.Internal.Vdw>
-4.7076

> <Gold.Goldscore.Internal.Torsion>
-5.8490

> <Gold.Goldscore.External.Vdw>
45.6253

> <Gold.Goldscore.Internal.HBond>
0.0000

> <Gold.Goldscore.External.HBond>
0.0287

> <Gold.Goldscore.Internal.Correction>
-6.4133

> <Gold.Goldscore.Hbonds>
donor molecule, donor type, donor heavy atom, donor atom, acceptor molecule, acceptor atom, score
      L1  H    16    37       P1  1931  0.01

> <Gold.Goldscore.Internal.Vdw.Weighted>
-4.7076

> <Gold.Goldscore.Internal.Torsion.Weighted>
-5.8490

> <Gold.Goldscore.External.Vdw.Weighted>
62.7348

> <Gold.Goldscore.Internal.HBond.Weighted>
0.0000

> <Gold.Goldscore.External.HBond.Weighted>
0.0287

> <Gold.Goldscore.Internal.Correction.Weighted>
-6.4133

> <Gold.Protein.RotatedTorsions>
[ 3781 1176 1175 1172 ] final  117.32 input   60.00 | X-H torsion
[ 3847 1247 1246 1244 ] final  -63.03 input   60.00 | X-H torsion
[ 4507 1931 1930 1928 ] final  140.54 input   60.00 | X-H torsion
[ 3677 1070 1069 1066 ] final -168.59 input   60.00 | X-H torsion
[ 3525  925  924  922 ] final  -49.96 input   59.99 | X-H torsion
[ 4531 1957 1955 1953 ] final   70.86 input   60.00 | X-H torsion

> <Gold.Protein.ActiveResidues>
 PHE267  PRO268  MET310  ASP335  TRP336  MET339  TYR343  THR360  PRO361  ILE363 
 PRO371  SER374  ILE375  ASN378  PHE381  TYR383  GLN384  PHE387  LEU408  LEU417 
 MET419  LEU428  TYR466  MET469  ASN472  ASP496  VAL498  LEU499  MET503  HIS524 
 TRP525 

> <Gold.Protein.RotatedAtoms>
   -3.7515  -29.5495  -29.7002 H   0  0  0  0  0  0  0  0  0  0  0  0  # atno 3525 bound_to 925 
  -11.0960  -22.9288  -31.2610 H   0  0  0  0  0  0  0  0  0  0  0  0  # atno 3677 bound_to 1070
   -9.8762  -37.1071  -32.3715 H   0  0  0  0  0  0  0  0  0  0  0  0  # atno 3781 bound_to 1176
  -16.0562  -27.8248  -37.2606 H   0  0  0  0  0  0  0  0  0  0  0  0  # atno 3847 bound_to 1247
  -12.5320  -23.8085  -39.6538 H   0  0  0  0  0  0  0  0  0  0  0  0  # atno 4507 bound_to 1931
   -2.9888  -33.5782  -36.6826 H   0  0  0  0  0  0  0  0  0  0  0  0  # atno 4531 bound_to 1957
  -10.7961  -37.2167  -33.7093 LP  0  0  0  0  0  0  0  0  0  0  0  0  # atno 5205 bound_to 1176
   -9.4395  -36.3077  -33.7199 LP  0  0  0  0  0  0  0  0  0  0  0  0  # atno 5206 bound_to 1176
  -14.6274  -27.4706  -37.9542 LP  0  0  0  0  0  0  0  0  0  0  0  0  # atno 5215 bound_to 1247
  -14.8748  -28.9434  -37.2937 LP  0  0  0  0  0  0  0  0  0  0  0  0  # atno 5216 bound_to 1247
  -13.0348  -25.1553  -38.8913 LP  0  0  0  0  0  0  0  0  0  0  0  0  # atno 5217 bound_to 1931
  -13.6317  -24.7758  -40.3631 LP  0  0  0  0  0  0  0  0  0  0  0  0  # atno 5218 bound_to 1931
  -12.2919  -22.3292  -30.3345 LP  0  0  0  0  0  0  0  0  0  0  0  0  # atno 5224 bound_to 1070
  -12.4722  -23.7760  -31.0699 LP  0  0  0  0  0  0  0  0  0  0  0  0  # atno 5225 bound_to 1070

$$$$
IA_205.cdx|SeH_inactivess_minimized|sdf|102|dock2
  -GOLD-   4172120483D 1   1.00000     0.00000

 36 36  0  0  0  0  0  0  0  0  1 V2000
   -9.6593  -26.0315  -35.0672 C   0  0  0  0  0  0  0  0  0  0  0  0
  -13.9860  -25.7460  -36.8948 C   0  0  0  0  0  0  0  0  0  0  0  0
  -18.1699  -23.2768  -38.1803 C   0  0  0  0  0  0  0  0  0  0  0  0
  -18.0570  -24.4880  -37.2584 C   0  0  0  0  0  0  0  0  0  0  0  0
  -16.8045  -22.8113  -38.6792 C   0  0  0  0  0  0  0  0  0  0  0  0
  -17.2754  -25.6255  -37.9170 C   0  0  0  0  0  0  0  0  0  0  0  0
  -16.0260  -23.9529  -39.3347 C   0  0  0  0  0  0  0  0  0  0  0  0
  -15.8973  -25.1837  -38.4274 C   0  0  0  0  0  0  0  0  0  0  0  0
   -8.6539  -28.1736  -35.0434 C   0  0  0  0  0  0  0  0  0  0  0  0
  -10.8627  -25.2999  -35.6229 C   0  0  0  0  0  0  0  0  0  0  0  0
  -12.1880  -25.9091  -35.1789 C   0  0  0  0  0  0  0  0  0  0  0  0
  -15.0088  -24.8921  -37.3003 N   0  0  0  0  0  0  0  0  0  0  0  0
  -13.2976  -25.2264  -35.8014 N   0  0  0  0  0  0  0  0  0  0  0  0
   -8.8791  -25.5825  -34.2391 O   0  0  0  0  0  0  0  0  0  0  0  0
  -13.7227  -26.8208  -37.4326 O   0  0  0  0  0  0  0  0  0  0  0  0
   -9.5992  -27.2743  -35.6319 O   0  0  0  0  0  0  0  0  0  0  0  0
  -18.8105  -23.5233  -39.0359 H   0  0  0  0  0  0  0  0  0  0  0  0
  -18.6607  -22.4546  -37.6428 H   0  0  0  0  0  0  0  0  0  0  0  0
  -17.5646  -24.1961  -36.3245 H   0  0  0  0  0  0  0  0  0  0  0  0
  -19.0611  -24.8416  -36.9948 H   0  0  0  0  0  0  0  0  0  0  0  0
  -16.9372  -21.9986  -39.4032 H   0  0  0  0  0  0  0  0  0  0  0  0
  -16.2256  -22.4043  -37.8430 H   0  0  0  0  0  0  0  0  0  0  0  0
  -17.1581  -26.4528  -37.1952 H   0  0  0  0  0  0  0  0  0  0  0  0
  -17.8683  -26.0406  -38.7494 H   0  0  0  0  0  0  0  0  0  0  0  0
  -16.5193  -24.2343  -40.2804 H   0  0  0  0  0  0  0  0  0  0  0  0
  -15.0219  -23.5930  -39.6196 H   0  0  0  0  0  0  0  0  0  0  0  0
  -15.4304  -25.9976  -38.9762 H   0  0  0  0  0  0  0  0  0  0  0  0
   -8.9754  -28.4300  -34.0309 H   0  0  0  0  0  0  0  0  0  0  0  0
   -7.6688  -27.7012  -35.0157 H   0  0  0  0  0  0  0  0  0  0  0  0
   -8.6034  -29.0820  -35.6482 H   0  0  0  0  0  0  0  0  0  0  0  0
  -10.7983  -25.3466  -36.7159 H   0  0  0  0  0  0  0  0  0  0  0  0
  -10.8074  -24.2511  -35.3090 H   0  0  0  0  0  0  0  0  0  0  0  0
  -12.2961  -25.8598  -34.0902 H   0  0  0  0  0  0  0  0  0  0  0  0
  -12.2219  -26.9643  -35.4682 H   0  0  0  0  0  0  0  0  0  0  0  0
  -15.1451  -24.0249  -36.7895 H   0  0  0  0  0  0  0  0  0  0  0  0
  -13.5558  -24.3086  -35.4524 H   0  0  0  0  0  0  0  0  0  0  0  0
  1 10  1  0  0  0  0
  1 14  2  0  0  0  0
  1 16  1  0  0  0  0
  2 12  1  0  0  0  0
  2 13  1  0  0  0  0
  2 15  2  0  0  0  0
  3  4  1  0  0  0  0
  3  5  1  0  0  0  0
  4  6  1  0  0  0  0
  5  7  1  0  0  0  0
  6  8  1  0  0  0  0
  7  8  1  0  0  0  0
  8 12  1  0  0  0  0
  9 16  1  0  0  0  0
 10 11  1  0  0  0  0
 11 13  1  0  0  0  0
  3 17  1  0  0  0  0
  3 18  1  0  0  0  0
  4 19  1  0  0  0  0
  4 20  1  0  0  0  0
  5 21  1  0  0  0  0
  5 22  1  0  0  0  0
  6 23  1  0  0  0  0
  6 24  1  0  0  0  0
  7 25  1  0  0  0  0
  7 26  1  0  0  0  0
  8 27  1  0  0  0  0
  9 28  1  0  0  0  0
  9 29  1  0  0  0  0
  9 30  1  0  0  0  0
 10 31  1  0  0  0  0
 10 32  1  0  0  0  0
 11 33  1  0  0  0  0
 11 34  1  0  0  0  0
 12 35  1  0  0  0  0
 13 36  1  0  0  0  0
M  END
> <Name>
IA_205.cdx

> <SourceTag>
IA_205

> <Gold.Version>
5.2

> <Gold.Id.Protein>
6HGV|6HGV_protein|mol2

> <Gold.Goldscore.Fitness>
50.1019

> <Gold.Goldscore.Internal.Vdw>
-1.6715

> <Gold.Goldscore.Internal.Torsion>
-2.2270

> <Gold.Goldscore.External.Vdw>
34.5841

> <Gold.Goldscore.Internal.HBond>
0.0000

> <Gold.Goldscore.External.HBond>
4.2209

> <Gold.Goldscore.Internal.Correction>
-2.2263

> <Gold.Goldscore.Hbonds>
donor molecule, donor type, donor heavy atom, donor atom, acceptor molecule, acceptor atom, score
      L1  H    12    35       P1   853  0.06
      L1  H    13    36       P1   853  0.64

> <Gold.Goldscore.Internal.Vdw.Weighted>
-1.6715

> <Gold.Goldscore.Internal.Torsion.Weighted>
-2.2270

> <Gold.Goldscore.External.Vdw.Weighted>
47.5531

> <Gold.Goldscore.Internal.HBond.Weighted>
0.0000

> <Gold.Goldscore.External.HBond.Weighted>
4.2209

> <Gold.Goldscore.Internal.Correction.Weighted>
-2.2263

> <Gold.Protein.RotatedTorsions>
[ 3781 1176 1175 1172 ] final  134.64 input   60.00 | X-H torsion
[ 3847 1247 1246 1244 ] final  -20.21 input   60.00 | X-H torsion
[ 4507 1931 1930 1928 ] final   71.38 input   60.00 | X-H torsion
[ 3677 1070 1069 1066 ] final  -97.98 input   60.00 | X-H torsion
[ 3525  925  924  922 ] final  168.14 input   59.99 | X-H torsion
[ 4531 1957 1955 1953 ] final   81.74 input   60.00 | X-H torsion

> <Gold.Protein.ActiveResidues>
 PHE267  PRO268  MET310  ASP335  TRP336  MET339  TYR343  THR360  PRO361  ILE363 
 PRO371  SER374  ILE375  ASN378  PHE381  TYR383  GLN384  PHE387  LEU408  LEU417 
 MET419  LEU428  TYR466  MET469  ASN472  ASP496  VAL498  LEU499  MET503  HIS524 
 TRP525 

> <Gold.Protein.RotatedAtoms>
   -2.1380  -30.2650  -29.5689 H   0  0  0  0  0  0  0  0  0  0  0  0  # atno 3525 bound_to 925 
  -11.7645  -23.7668  -31.4096 H   0  0  0  0  0  0  0  0  0  0  0  0  # atno 3677 bound_to 1070
   -9.6520  -36.9417  -32.4138 H   0  0  0  0  0  0  0  0  0  0  0  0  # atno 3781 bound_to 1176
  -15.9214  -28.4667  -37.0680 H   0  0  0  0  0  0  0  0  0  0  0  0  # atno 3847 bound_to 1247
  -12.5548  -24.5082  -38.8542 H   0  0  0  0  0  0  0  0  0  0  0  0  # atno 4507 bound_to 1931
   -2.8918  -33.7255  -36.7036 H   0  0  0  0  0  0  0  0  0  0  0  0  # atno 4531 bound_to 1957
  -10.8368  -37.3386  -33.4563 LP  0  0  0  0  0  0  0  0  0  0  0  0  # atno 5205 bound_to 1176
   -9.6247  -36.3524  -33.9303 LP  0  0  0  0  0  0  0  0  0  0  0  0  # atno 5206 bound_to 1176
  -15.2424  -27.1927  -37.8191 LP  0  0  0  0  0  0  0  0  0  0  0  0  # atno 5215 bound_to 1247
  -14.3954  -28.5750  -37.6228 LP  0  0  0  0  0  0  0  0  0  0  0  0  # atno 5216 bound_to 1247
  -13.6491  -25.3086  -39.7541 LP  0  0  0  0  0  0  0  0  0  0  0  0  # atno 5217 bound_to 1931
  -12.9945  -23.9178  -40.3054 LP  0  0  0  0  0  0  0  0  0  0  0  0  # atno 5218 bound_to 1931
  -11.3124  -22.3222  -30.8121 LP  0  0  0  0  0  0  0  0  0  0  0  0  # atno 5224 bound_to 1070
  -12.7785  -22.9392  -30.4427 LP  0  0  0  0  0  0  0  0  0  0  0  0  # atno 5225 bound_to 1070

$$$$
IA_184.cdx|SeH_inactivess_minimized|sdf|84|dock3
  -GOLD-   4172120223D 1   1.00000     0.00000

 17 18  0  0  0  0  0  0  0  0  1 V2000
  -15.8675  -24.3984  -37.5178 C   0  0  0  0  0  0  0  0  0  0  0  0
  -15.7383  -25.1377  -36.3410 C   0  0  0  0  0  0  0  0  0  0  0  0
  -17.1282  -23.9787  -37.9482 C   0  0  0  0  0  0  0  0  0  0  0  0
  -16.8688  -25.4590  -35.5927 C   0  0  0  0  0  0  0  0  0  0  0  0
  -18.2675  -24.2967  -37.2027 C   0  0  0  0  0  0  0  0  0  0  0  0
  -18.1204  -25.0335  -36.0346 C   0  0  0  0  0  0  0  0  0  0  0  0
  -20.4779  -24.9485  -35.7009 C   0  0  0  0  0  0  0  0  0  0  0  0
  -19.6295  -23.8635  -37.6355 C   0  0  0  0  0  0  0  0  0  0  0  0
  -20.7285  -24.2654  -36.7601 N   0  0  0  0  0  0  0  0  0  0  0  0
  -19.2333  -25.3745  -35.2595 O   0  0  0  0  0  0  0  0  0  0  0  0
  -21.8182  -25.3892  -34.7160 Cl  0  0  0  0  0  0  0  0  0  0  0  0
  -14.9857  -24.1494  -38.1013 H   0  0  0  0  0  0  0  0  0  0  0  0
  -14.7566  -25.4631  -36.0094 H   0  0  0  0  0  0  0  0  0  0  0  0
  -17.2154  -23.4039  -38.8667 H   0  0  0  0  0  0  0  0  0  0  0  0
  -16.7689  -26.0344  -34.6773 H   0  0  0  0  0  0  0  0  0  0  0  0
  -19.6429  -22.7701  -37.7131 H   0  0  0  0  0  0  0  0  0  0  0  0
  -19.8277  -24.2692  -38.6343 H   0  0  0  0  0  0  0  0  0  0  0  0
  1  2  2  0  0  0  0
  1  3  1  0  0  0  0
  2  4  1  0  0  0  0
  3  5  2  0  0  0  0
  4  6  2  0  0  0  0
  5  6  1  0  0  0  0
  5  8  1  0  0  0  0
  6 10  1  0  0  0  0
  7  9  2  0  0  0  0
  7 10  1  0  0  0  0
  7 11  1  0  0  0  0
  8  9  1  0  0  0  0
  1 12  1  0  0  0  0
  2 13  1  0  0  0  0
  3 14  1  0  0  0  0
  4 15  1  0  0  0  0
  8 16  1  0  0  0  0
  8 17  1  0  0  0  0
M  END
> <Name>
IA_184.cdx

> <SourceTag>
IA_184

> <Gold.Version>
5.2

> <Gold.Id.Protein>
6HGV|6HGV_protein|mol2

> <Gold.Goldscore.Fitness>
33.7034

> <Gold.Goldscore.Internal.Vdw>
-0.0000

> <Gold.Goldscore.Internal.Torsion>
-0.0000

> <Gold.Goldscore.External.Vdw>
24.5115

> <Gold.Goldscore.Internal.HBond>
0.0000

> <Gold.Goldscore.External.HBond>
0.0000

> <Gold.Goldscore.Internal.Correction>
0.0000

> <Gold.Goldscore.Internal.Vdw.Weighted>
-0.0000

> <Gold.Goldscore.Internal.Torsion.Weighted>
-0.0000

> <Gold.Goldscore.External.Vdw.Weighted>
33.7034

> <Gold.Goldscore.Internal.HBond.Weighted>
0.0000

> <Gold.Goldscore.External.HBond.Weighted>
0.0000

> <Gold.Goldscore.Internal.Correction.Weighted>
0.0000

> <Gold.Protein.RotatedTorsions>
[ 3781 1176 1175 1172 ] final   15.83 input   60.00 | X-H torsion
[ 3847 1247 1246 1244 ] final  -43.37 input   60.00 | X-H torsion
[ 4507 1931 1930 1928 ] final  -82.29 input   60.00 | X-H torsion
[ 3677 1070 1069 1066 ] final  -83.34 input   60.00 | X-H torsion
[ 3525  925  924  922 ] final  -50.84 input   59.99 | X-H torsion
[ 4531 1957 1955 1953 ] final  -62.31 input   60.00 | X-H torsion

> <Gold.Protein.ActiveResidues>
 PHE267  PRO268  MET310  ASP335  TRP336  MET339  TYR343  THR360  PRO361  ILE363 
 PRO371  SER374  ILE375  ASN378  PHE381  TYR383  GLN384  PHE387  LEU408  LEU417 
 MET419  LEU428  TYR466  MET469  ASN472  ASP496  VAL498  LEU499  MET503  HIS524 
 TRP525 

> <Gold.Protein.RotatedAtoms>
   -3.7485  -29.5521  -29.6863 H   0  0  0  0  0  0  0  0  0  0  0  0  # atno 3525 bound_to 925 
  -11.9830  -23.8317  -31.3391 H   0  0  0  0  0  0  0  0  0  0  0  0  # atno 3677 bound_to 1070
  -10.8300  -37.3442  -33.4375 H   0  0  0  0  0  0  0  0  0  0  0  0  # atno 3781 bound_to 1176
  -16.0533  -28.1238  -37.1474 H   0  0  0  0  0  0  0  0  0  0  0  0  # atno 3847 bound_to 1247
  -13.6864  -24.9959  -40.1979 H   0  0  0  0  0  0  0  0  0  0  0  0  # atno 4507 bound_to 1931
   -1.9435  -32.2256  -36.8579 H   0  0  0  0  0  0  0  0  0  0  0  0  # atno 4531 bound_to 1957
   -9.6390  -36.3572  -33.9428 LP  0  0  0  0  0  0  0  0  0  0  0  0  # atno 5205 bound_to 1176
   -9.6361  -36.9284  -32.4129 LP  0  0  0  0  0  0  0  0  0  0  0  0  # atno 5206 bound_to 1176
  -14.8906  -27.2883  -37.9207 LP  0  0  0  0  0  0  0  0  0  0  0  0  # atno 5215 bound_to 1247
  -14.6144  -28.8247  -37.4413 LP  0  0  0  0  0  0  0  0  0  0  0  0  # atno 5216 bound_to 1247
  -12.6556  -23.7717  -39.9029 LP  0  0  0  0  0  0  0  0  0  0  0  0  # atno 5217 bound_to 1931
  -12.8484  -24.9636  -38.8034 LP  0  0  0  0  0  0  0  0  0  0  0  0  # atno 5218 bound_to 1931
  -11.1851  -22.4660  -30.9566 LP  0  0  0  0  0  0  0  0  0  0  0  0  # atno 5224 bound_to 1070
  -12.6857  -22.7300  -30.3692 LP  0  0  0  0  0  0  0  0  0  0  0  0  # atno 5225 bound_to 1070

$$$$
IA_59|SeH_inactivess_minimized|sdf|144|dock10
  -GOLD-   4172122 13D 1   1.00000     0.00000

 62 65  0  0  0  0  0  0  0  0  1 V2000
  -13.4459  -25.3442  -37.0357 C   0  0  0  0  0  0  0  0  0  0  0  0
  -18.4555  -23.6799  -37.7360 C   0  0  0  0  0  0  0  0  0  0  0  0
  -17.9493  -25.9935  -38.5610 C   0  0  0  0  0  0  0  0  0  0  0  0
  -17.5534  -24.0162  -40.0518 C   0  0  0  0  0  0  0  0  0  0  0  0
  -16.5100  -24.9500  -36.7926 C   0  0  0  0  0  0  0  0  0  0  0  0
  -16.1140  -22.9706  -38.2850 C   0  0  0  0  0  0  0  0  0  0  0  0
  -15.6068  -25.2874  -39.1119 C   0  0  0  0  0  0  0  0  0  0  0  0
   -8.5759  -28.9417  -34.9351 C   0  0  0  0  0  0  0  0  0  0  0  0
  -11.1051  -28.8105  -33.6205 C   0  0  0  0  0  0  0  0  0  0  0  0
  -17.9468  -25.0730  -37.3285 C   0  0  0  0  0  0  0  0  0  0  0  0
  -17.5491  -23.0856  -38.8271 C   0  0  0  0  0  0  0  0  0  0  0  0
  -17.0401  -25.4114  -39.6568 C   0  0  0  0  0  0  0  0  0  0  0  0
   -9.1144  -30.1244  -34.1161 C   0  0  2  0  0  0  0  0  0  0  0  0
  -10.5380  -27.6366  -34.4310 C   0  0  2  0  0  0  0  0  0  0  0  0
  -15.5798  -24.3614  -37.8766 C   0  0  0  0  0  0  0  0  0  0  0  0
   -9.7515  -31.2031  -34.9975 C   0  0  0  0  0  0  0  0  0  0  0  0
  -11.6667  -26.8185  -35.0549 C   0  0  0  0  0  0  0  0  0  0  0  0
  -10.4505  -32.2584  -34.1526 C   0  0  0  0  0  0  0  0  0  0  0  0
  -11.1790  -25.8872  -36.1581 C   0  0  0  0  0  0  0  0  0  0  0  0
  -10.9538  -33.4093  -35.0121 C   0  0  0  0  0  0  0  0  0  0  0  0
  -10.0461  -29.6656  -33.0738 N   0  0  0  0  0  0  0  0  0  0  0  0
   -9.6523  -28.1235  -35.4943 N   0  0  0  0  0  0  0  0  0  0  0  0
  -14.2307  -24.2446  -37.3682 N   0  0  0  0  0  0  0  0  0  0  0  0
  -12.1938  -24.9474  -36.5730 N   0  0  0  0  0  0  0  0  0  0  0  0
  -13.8081  -26.5156  -37.1369 O   0  0  0  0  0  0  0  0  0  0  0  0
   -9.8446  -34.0208  -35.6558 O   0  0  0  0  0  0  0  0  0  0  0  0
  -19.4866  -23.7508  -38.1036 H   0  0  0  0  0  0  0  0  0  0  0  0
  -18.4739  -23.0172  -36.8620 H   0  0  0  0  0  0  0  0  0  0  0  0
  -17.6033  -26.9958  -38.2805 H   0  0  0  0  0  0  0  0  0  0  0  0
  -18.9714  -26.1046  -38.9428 H   0  0  0  0  0  0  0  0  0  0  0  0
  -18.5687  -24.0928  -40.4599 H   0  0  0  0  0  0  0  0  0  0  0  0
  -16.9226  -23.5955  -40.8444 H   0  0  0  0  0  0  0  0  0  0  0  0
  -16.5006  -24.3148  -35.8971 H   0  0  0  0  0  0  0  0  0  0  0  0
  -16.1452  -25.9354  -36.4740 H   0  0  0  0  0  0  0  0  0  0  0  0
  -15.4626  -22.5226  -39.0471 H   0  0  0  0  0  0  0  0  0  0  0  0
  -16.0941  -22.2884  -37.4247 H   0  0  0  0  0  0  0  0  0  0  0  0
  -15.2201  -26.2811  -38.8501 H   0  0  0  0  0  0  0  0  0  0  0  0
  -14.9442  -24.8964  -39.8954 H   0  0  0  0  0  0  0  0  0  0  0  0
   -7.9294  -28.3161  -34.3057 H   0  0  0  0  0  0  0  0  0  0  0  0
   -7.9511  -29.3128  -35.7554 H   0  0  0  0  0  0  0  0  0  0  0  0
  -11.6994  -28.4248  -32.7836 H   0  0  0  0  0  0  0  0  0  0  0  0
  -11.7940  -29.4113  -34.2267 H   0  0  0  0  0  0  0  0  0  0  0  0
  -18.5967  -25.4920  -36.5524 H   0  0  0  0  0  0  0  0  0  0  0  0
  -17.9168  -22.0942  -39.1142 H   0  0  0  0  0  0  0  0  0  0  0  0
  -17.0475  -26.0700  -40.5322 H   0  0  0  0  0  0  0  0  0  0  0  0
   -8.2646  -30.5938  -33.6048 H   0  0  0  0  0  0  0  0  0  0  0  0
   -9.9708  -26.9740  -33.7639 H   0  0  0  0  0  0  0  0  0  0  0  0
  -10.4637  -30.7244  -35.6735 H   0  0  0  0  0  0  0  0  0  0  0  0
   -8.9693  -31.6608  -35.6075 H   0  0  0  0  0  0  0  0  0  0  0  0
  -12.1404  -26.2189  -34.2691 H   0  0  0  0  0  0  0  0  0  0  0  0
  -12.4306  -27.4999  -35.4480 H   0  0  0  0  0  0  0  0  0  0  0  0
   -9.7699  -32.6485  -33.3855 H   0  0  0  0  0  0  0  0  0  0  0  0
  -11.2939  -31.8164  -33.6074 H   0  0  0  0  0  0  0  0  0  0  0  0
  -10.3258  -25.3007  -35.8031 H   0  0  0  0  0  0  0  0  0  0  0  0
  -10.8618  -26.4497  -37.0418 H   0  0  0  0  0  0  0  0  0  0  0  0
  -11.4593  -34.1625  -34.3992 H   0  0  0  0  0  0  0  0  0  0  0  0
  -11.6470  -33.0502  -35.7794 H   0  0  0  0  0  0  0  0  0  0  0  0
   -9.5178  -29.1190  -32.3925 H   0  0  0  0  0  0  0  0  0  0  0  0
   -9.2525  -27.3331  -35.9989 H   0  0  0  0  0  0  0  0  0  0  0  0
  -13.8381  -23.3169  -37.2483 H   0  0  0  0  0  0  0  0  0  0  0  0
  -11.9657  -23.9582  -36.5672 H   0  0  0  0  0  0  0  0  0  0  0  0
   -9.2827  -34.3906  -34.9555 H   0  0  0  0  0  0  0  0  0  0  0  0
  1 23  1  0  0  0  0
  1 24  1  0  0  0  0
  1 25  2  0  0  0  0
  2 10  1  0  0  0  0
  2 11  1  0  0  0  0
  3 10  1  0  0  0  0
  3 12  1  0  0  0  0
  4 11  1  0  0  0  0
  4 12  1  0  0  0  0
  5 10  1  0  0  0  0
  5 15  1  0  0  0  0
  6 11  1  0  0  0  0
  6 15  1  0  0  0  0
  7 12  1  0  0  0  0
  7 15  1  0  0  0  0
  8 13  1  0  0  0  0
  8 22  1  0  0  0  0
  9 14  1  0  0  0  0
  9 21  1  0  0  0  0
 13 16  1  0  0  0  0
 13 21  1  0  0  0  0
 14 17  1  0  0  0  0
 14 22  1  0  0  0  0
 15 23  1  0  0  0  0
 16 18  1  0  0  0  0
 17 19  1  0  0  0  0
 18 20  1  0  0  0  0
 19 24  1  0  0  0  0
 20 26  1  0  0  0  0
  2 27  1  0  0  0  0
  2 28  1  0  0  0  0
  3 29  1  0  0  0  0
  3 30  1  0  0  0  0
  4 31  1  0  0  0  0
  4 32  1  0  0  0  0
  5 33  1  0  0  0  0
  5 34  1  0  0  0  0
  6 35  1  0  0  0  0
  6 36  1  0  0  0  0
  7 37  1  0  0  0  0
  7 38  1  0  0  0  0
  8 39  1  0  0  0  0
  8 40  1  0  0  0  0
  9 41  1  0  0  0  0
  9 42  1  0  0  0  0
 10 43  1  0  0  0  0
 11 44  1  0  0  0  0
 12 45  1  0  0  0  0
 13 46  1  0  0  0  0
 14 47  1  0  0  0  0
 16 48  1  0  0  0  0
 16 49  1  0  0  0  0
 17 50  1  0  0  0  0
 17 51  1  0  0  0  0
 18 52  1  0  0  0  0
 18 53  1  0  0  0  0
 19 54  1  0  0  0  0
 19 55  1  0  0  0  0
 20 56  1  0  0  0  0
 20 57  1  0  0  0  0
 21 58  1  0  0  0  0
 22 59  1  0  0  0  0
 23 60  1  0  0  0  0
 24 61  1  0  0  0  0
 26 62  1  0  0  0  0
M  END
> <Name>
IA_59

> <SourceTag>
IA_59

> <Gold.Version>
5.2

> <Gold.Id.Protein>
6HGV|6HGV_protein|mol2

> <Gold.Goldscore.Fitness>
55.7440

> <Gold.Goldscore.Internal.Vdw>
-8.8699

> <Gold.Goldscore.Internal.Torsion>
-2.2381

> <Gold.Goldscore.External.Vdw>
40.7981

> <Gold.Goldscore.Internal.HBond>
0.0000

> <Gold.Goldscore.External.HBond>
4.1897

> <Gold.Goldscore.Internal.Correction>
-6.5651

> <Gold.Goldscore.Hbonds>
donor molecule, donor type, donor heavy atom, donor atom, acceptor molecule, acceptor atom, score
      P1  H  1176  3781       L1    26  0.34
      L1  H    23    60       P1   854  0.40
      L1  H    24    61       P1   854  0.18

> <Gold.Goldscore.Internal.Vdw.Weighted>
-8.8699

> <Gold.Goldscore.Internal.Torsion.Weighted>
-2.2381

> <Gold.Goldscore.External.Vdw.Weighted>
56.0974

> <Gold.Goldscore.Internal.HBond.Weighted>
0.0000

> <Gold.Goldscore.External.HBond.Weighted>
4.1897

> <Gold.Goldscore.Internal.Correction.Weighted>
-6.5651

> <Gold.Protein.RotatedTorsions>
[ 3781 1176 1175 1172 ] final  -96.54 input   60.00 | X-H torsion
[ 3847 1247 1246 1244 ] final  -30.16 input   60.00 | X-H torsion
[ 4507 1931 1930 1928 ] final  138.75 input   60.00 | X-H torsion
[ 3677 1070 1069 1066 ] final  -97.36 input   60.00 | X-H torsion
[ 3525  925  924  922 ] final  -42.37 input   59.99 | X-H torsion
[ 4531 1957 1955 1953 ] final   46.06 input   60.00 | X-H torsion

> <Gold.Protein.ActiveResidues>
 PHE267  PRO268  MET310  ASP335  TRP336  MET339  TYR343  THR360  PRO361  ILE363 
 PRO371  SER374  ILE375  ASN378  PHE381  TYR383  GLN384  PHE387  LEU408  LEU417 
 MET419  LEU428  TYR466  MET469  ASN472  ASP496  VAL498  LEU499  MET503  HIS524 
 TRP525 

> <Gold.Protein.RotatedAtoms>
   -3.7691  -29.5308  -29.8214 H   0  0  0  0  0  0  0  0  0  0  0  0  # atno 3525 bound_to 925 
  -11.7736  -23.7706  -31.4073 H   0  0  0  0  0  0  0  0  0  0  0  0  # atno 3677 bound_to 1070
   -9.7354  -36.3991  -34.0108 H   0  0  0  0  0  0  0  0  0  0  0  0  # atno 3781 bound_to 1176
  -15.9942  -28.3240  -37.0940 H   0  0  0  0  0  0  0  0  0  0  0  0  # atno 3847 bound_to 1247
  -12.5216  -23.8157  -39.6274 H   0  0  0  0  0  0  0  0  0  0  0  0  # atno 4507 bound_to 1931
   -3.0972  -33.1919  -36.6553 H   0  0  0  0  0  0  0  0  0  0  0  0  # atno 4531 bound_to 1957
   -9.5478  -36.8521  -32.4592 LP  0  0  0  0  0  0  0  0  0  0  0  0  # atno 5205 bound_to 1176
  -10.8296  -37.3852  -33.3191 LP  0  0  0  0  0  0  0  0  0  0  0  0  # atno 5206 bound_to 1176
  -15.0890  -27.2167  -37.8702 LP  0  0  0  0  0  0  0  0  0  0  0  0  # atno 5215 bound_to 1247
  -14.4755  -28.6948  -37.5455 LP  0  0  0  0  0  0  0  0  0  0  0  0  # atno 5216 bound_to 1247
  -13.0547  -25.1726  -38.9044 LP  0  0  0  0  0  0  0  0  0  0  0  0  # atno 5217 bound_to 1931
  -13.6223  -24.7512  -40.3765 LP  0  0  0  0  0  0  0  0  0  0  0  0  # atno 5218 bound_to 1931
  -11.3061  -22.3275  -30.8182 LP  0  0  0  0  0  0  0  0  0  0  0  0  # atno 5224 bound_to 1070
  -12.7756  -22.9301  -30.4389 LP  0  0  0  0  0  0  0  0  0  0  0  0  # atno 5225 bound_to 1070

$$$$
IA_104.cdx|SeH_inactivess_minimized|sdf|6|dock2
  -GOLD-   4172118323D 1   1.00000     0.00000

 62 61  0  0  0  0  0  0  0  0  1 V2000
  -23.9619  -22.3860  -39.0552 C   0  0  0  0  0  0  0  0  0  0  0  0
   -4.4124  -33.2940  -34.6836 C   0  0  0  0  0  0  0  0  0  0  0  0
   -3.9382  -31.9400  -34.1787 C   0  0  0  0  0  0  0  0  0  0  0  0
   -4.6498  -30.7586  -34.8430 C   0  0  0  0  0  0  0  0  0  0  0  0
   -6.1181  -30.6296  -34.4296 C   0  0  0  0  0  0  0  0  0  0  0  0
   -6.8323  -29.4474  -35.0936 C   0  0  0  0  0  0  0  0  0  0  0  0
   -8.3309  -29.3274  -34.7975 C   0  0  0  0  0  0  0  0  0  0  0  0
   -9.0416  -28.1397  -35.4540 C   0  0  0  0  0  0  0  0  0  0  0  0
  -10.4831  -27.8958  -34.9953 C   0  0  0  0  0  0  0  0  0  0  0  0
  -11.2685  -26.8543  -35.7982 C   0  0  0  0  0  0  0  0  0  0  0  0
  -12.7563  -26.8090  -35.4439 C   0  0  0  0  0  0  0  0  0  0  0  0
  -13.5214  -25.8754  -36.3847 C   0  0  0  0  0  0  0  0  0  0  0  0
  -14.9902  -25.7548  -35.9748 C   0  0  0  0  0  0  0  0  0  0  0  0
  -15.8049  -25.0125  -37.0354 C   0  0  0  0  0  0  0  0  0  0  0  0
  -17.3015  -25.0560  -36.7184 C   0  0  0  0  0  0  0  0  0  0  0  0
  -18.1144  -24.3130  -37.7804 C   0  0  0  0  0  0  0  0  0  0  0  0
  -19.6242  -24.3430  -37.5242 C   0  0  0  0  0  0  0  0  0  0  0  0
  -20.4921  -23.6137  -38.5569 C   0  0  0  0  0  0  0  0  0  0  0  0
  -21.9962  -23.7433  -38.3372 C   0  0  0  0  0  0  0  0  0  0  0  0
  -24.4982  -21.7856  -40.1803 N   0  0  0  0  0  0  0  0  0  0  0  0
  -22.7620  -23.0380  -39.3276 N   0  0  0  0  0  0  0  0  0  0  0  0
  -24.5022  -22.3362  -37.9516 O   0  0  0  0  0  0  0  0  0  0  0  0
   -5.4505  -33.4651  -34.3809 H   0  0  0  0  0  0  0  0  0  0  0  0
   -3.8015  -34.1035  -34.2715 H   0  0  0  0  0  0  0  0  0  0  0  0
   -4.3728  -33.3515  -35.7754 H   0  0  0  0  0  0  0  0  0  0  0  0
   -4.0664  -31.8904  -33.0911 H   0  0  0  0  0  0  0  0  0  0  0  0
   -2.8628  -31.8522  -34.3750 H   0  0  0  0  0  0  0  0  0  0  0  0
   -4.1178  -29.8394  -34.5688 H   0  0  0  0  0  0  0  0  0  0  0  0
   -4.5702  -30.8598  -35.9313 H   0  0  0  0  0  0  0  0  0  0  0  0
   -6.6579  -31.5564  -34.6505 H   0  0  0  0  0  0  0  0  0  0  0  0
   -6.1728  -30.4911  -33.3426 H   0  0  0  0  0  0  0  0  0  0  0  0
   -6.3264  -28.5220  -34.7940 H   0  0  0  0  0  0  0  0  0  0  0  0
   -6.7022  -29.5217  -36.1808 H   0  0  0  0  0  0  0  0  0  0  0  0
   -8.8204  -30.2590  -35.1055 H   0  0  0  0  0  0  0  0  0  0  0  0
   -8.4817  -29.2645  -33.7131 H   0  0  0  0  0  0  0  0  0  0  0  0
   -8.4461  -27.2369  -35.2731 H   0  0  0  0  0  0  0  0  0  0  0  0
   -9.0428  -28.2734  -36.5425 H   0  0  0  0  0  0  0  0  0  0  0  0
  -11.0217  -28.8511  -35.0348 H   0  0  0  0  0  0  0  0  0  0  0  0
  -10.4835  -27.5952  -33.9410 H   0  0  0  0  0  0  0  0  0  0  0  0
  -11.1472  -27.0356  -36.8721 H   0  0  0  0  0  0  0  0  0  0  0  0
  -10.8243  -25.8705  -35.6009 H   0  0  0  0  0  0  0  0  0  0  0  0
  -13.1888  -27.8135  -35.5080 H   0  0  0  0  0  0  0  0  0  0  0  0
  -12.8774  -26.4672  -34.4091 H   0  0  0  0  0  0  0  0  0  0  0  0
  -13.0556  -24.8825  -36.3766 H   0  0  0  0  0  0  0  0  0  0  0  0
  -13.4563  -26.2552  -37.4117 H   0  0  0  0  0  0  0  0  0  0  0  0
  -15.0621  -25.2238  -35.0179 H   0  0  0  0  0  0  0  0  0  0  0  0
  -15.4120  -26.7557  -35.8218 H   0  0  0  0  0  0  0  0  0  0  0  0
  -15.6248  -25.4630  -38.0190 H   0  0  0  0  0  0  0  0  0  0  0  0
  -15.4710  -23.9693  -37.0911 H   0  0  0  0  0  0  0  0  0  0  0  0
  -17.4817  -24.6051  -35.7352 H   0  0  0  0  0  0  0  0  0  0  0  0
  -17.6245  -26.1016  -36.6617 H   0  0  0  0  0  0  0  0  0  0  0  0
  -17.8926  -24.7218  -38.7728 H   0  0  0  0  0  0  0  0  0  0  0  0
  -17.7967  -23.2628  -37.8040 H   0  0  0  0  0  0  0  0  0  0  0  0
  -19.8149  -23.9203  -36.5301 H   0  0  0  0  0  0  0  0  0  0  0  0
  -19.9536  -25.3888  -37.4764 H   0  0  0  0  0  0  0  0  0  0  0  0
  -20.2409  -24.0092  -39.5495 H   0  0  0  0  0  0  0  0  0  0  0  0
  -20.2258  -22.5507  -38.5762 H   0  0  0  0  0  0  0  0  0  0  0  0
  -22.2670  -23.3191  -37.3650 H   0  0  0  0  0  0  0  0  0  0  0  0
  -22.3176  -24.7886  -38.3445 H   0  0  0  0  0  0  0  0  0  0  0  0
  -25.3708  -21.2697  -40.1444 H   0  0  0  0  0  0  0  0  0  0  0  0
  -24.0310  -21.8429  -41.0791 H   0  0  0  0  0  0  0  0  0  0  0  0
  -22.4071  -23.0137  -40.2825 H   0  0  0  0  0  0  0  0  0  0  0  0
  1 20  1  0  0  0  0
  1 21  1  0  0  0  0
  1 22  2  0  0  0  0
  2  3  1  0  0  0  0
  3  4  1  0  0  0  0
  4  5  1  0  0  0  0
  5  6  1  0  0  0  0
  6  7  1  0  0  0  0
  7  8  1  0  0  0  0
  8  9  1  0  0  0  0
  9 10  1  0  0  0  0
 10 11  1  0  0  0  0
 11 12  1  0  0  0  0
 12 13  1  0  0  0  0
 13 14  1  0  0  0  0
 14 15  1  0  0  0  0
 15 16  1  0  0  0  0
 16 17  1  0  0  0  0
 17 18  1  0  0  0  0
 18 19  1  0  0  0  0
 19 21  1  0  0  0  0
  2 23  1  0  0  0  0
  2 24  1  0  0  0  0
  2 25  1  0  0  0  0
  3 26  1  0  0  0  0
  3 27  1  0  0  0  0
  4 28  1  0  0  0  0
  4 29  1  0  0  0  0
  5 30  1  0  0  0  0
  5 31  1  0  0  0  0
  6 32  1  0  0  0  0
  6 33  1  0  0  0  0
  7 34  1  0  0  0  0
  7 35  1  0  0  0  0
  8 36  1  0  0  0  0
  8 37  1  0  0  0  0
  9 38  1  0  0  0  0
  9 39  1  0  0  0  0
 10 40  1  0  0  0  0
 10 41  1  0  0  0  0
 11 42  1  0  0  0  0
 11 43  1  0  0  0  0
 12 44  1  0  0  0  0
 12 45  1  0  0  0  0
 13 46  1  0  0  0  0
 13 47  1  0  0  0  0
 14 48  1  0  0  0  0
 14 49  1  0  0  0  0
 15 50  1  0  0  0  0
 15 51  1  0  0  0  0
 16 52  1  0  0  0  0
 16 53  1  0  0  0  0
 17 54  1  0  0  0  0
 17 55  1  0  0  0  0
 18 56  1  0  0  0  0
 18 57  1  0  0  0  0
 19 58  1  0  0  0  0
 19 59  1  0  0  0  0
 20 60  1  0  0  0  0
 20 61  1  0  0  0  0
 21 62  1  0  0  0  0
M  END
> <Name>
IA_104.cdx

> <SourceTag>
IA_104

> <Gold.Version>
5.2

> <Gold.Id.Protein>
6HGV|6HGV_protein|mol2

> <Gold.Goldscore.Fitness>
73.8230

> <Gold.Goldscore.Internal.Vdw>
-5.5576

> <Gold.Goldscore.Internal.Torsion>
-2.0744

> <Gold.Goldscore.External.Vdw>
54.1701

> <Gold.Goldscore.Internal.HBond>
0.0000

> <Gold.Goldscore.External.HBond>
0.0000

> <Gold.Goldscore.Internal.Correction>
-6.9712

> <Gold.Goldscore.Internal.Vdw.Weighted>
-5.5576

> <Gold.Goldscore.Internal.Torsion.Weighted>
-2.0744

> <Gold.Goldscore.External.Vdw.Weighted>
74.4839

> <Gold.Goldscore.Internal.HBond.Weighted>
0.0000

> <Gold.Goldscore.External.HBond.Weighted>
0.0000

> <Gold.Goldscore.Internal.Correction.Weighted>
-6.9712

> <Gold.Protein.RotatedTorsions>
[ 3781 1176 1175 1172 ] final  146.02 input   60.00 | X-H torsion
[ 3847 1247 1246 1244 ] final   80.64 input   60.00 | X-H torsion
[ 4507 1931 1930 1928 ] final   98.60 input   60.00 | X-H torsion
[ 3677 1070 1069 1066 ] final -175.79 input   60.00 | X-H torsion
[ 3525  925  924  922 ] final   32.21 input   59.99 | X-H torsion
[ 4531 1957 1955 1953 ] final  -94.09 input   60.00 | X-H torsion

> <Gold.Protein.ActiveResidues>
 PHE267  PRO268  MET310  ASP335  TRP336  MET339  TYR343  THR360  PRO361  ILE363 
 PRO371  SER374  ILE375  ASN378  PHE381  TYR383  GLN384  PHE387  LEU408  LEU417 
 MET419  LEU428  TYR466  MET469  ASN472  ASP496  VAL498  LEU499  MET503  HIS524 
 TRP525 

> <Gold.Protein.RotatedAtoms>
   -3.2149  -29.6829  -30.7994 H   0  0  0  0  0  0  0  0  0  0  0  0  # atno 3525 bound_to 925 
  -11.0898  -22.8255  -31.2052 H   0  0  0  0  0  0  0  0  0  0  0  0  # atno 3677 bound_to 1070
   -9.5224  -36.8288  -32.4842 H   0  0  0  0  0  0  0  0  0  0  0  0  # atno 3781 bound_to 1176
  -14.5738  -28.7849  -37.4752 H   0  0  0  0  0  0  0  0  0  0  0  0  # atno 3847 bound_to 1247
  -12.4395  -24.1513  -39.0855 H   0  0  0  0  0  0  0  0  0  0  0  0  # atno 4507 bound_to 1931
   -1.5105  -32.4862  -36.9448 H   0  0  0  0  0  0  0  0  0  0  0  0  # atno 4531 bound_to 1957
  -10.8240  -37.3965  -33.2788 LP  0  0  0  0  0  0  0  0  0  0  0  0  # atno 5205 bound_to 1176
   -9.7680  -36.4081  -34.0368 LP  0  0  0  0  0  0  0  0  0  0  0  0  # atno 5206 bound_to 1176
  -16.0453  -28.1853  -37.1243 LP  0  0  0  0  0  0  0  0  0  0  0  0  # atno 5215 bound_to 1247
  -14.9497  -27.2619  -37.9076 LP  0  0  0  0  0  0  0  0  0  0  0  0  # atno 5216 bound_to 1247
  -13.4678  -25.3831  -39.3560 LP  0  0  0  0  0  0  0  0  0  0  0  0  # atno 5217 bound_to 1931
  -13.2919  -24.2028  -40.4707 LP  0  0  0  0  0  0  0  0  0  0  0  0  # atno 5218 bound_to 1931
  -12.3891  -22.3960  -30.3247 LP  0  0  0  0  0  0  0  0  0  0  0  0  # atno 5224 bound_to 1070
  -12.3812  -23.8133  -31.1358 LP  0  0  0  0  0  0  0  0  0  0  0  0  # atno 5225 bound_to 1070

$$$$
IA_71.cdx|SeH_inactivess_minimized|sdf|149|dock5
  -GOLD-   4172122 63D 1   1.00000     0.00000

 14 13  0  0  0  0  0  0  0  0  1 V2000
  -13.1367  -26.0803  -36.2794 C   0  0  0  0  0  0  0  0  0  0  0  0
  -15.5952  -25.7874  -36.5907 C   0  0  0  0  0  0  0  0  0  0  0  0
  -10.6998  -25.9526  -35.7805 C   0  0  0  0  0  0  0  0  0  0  0  0
  -14.3000  -25.3267  -36.1467 N   0  0  0  0  0  0  0  0  0  0  0  0
  -12.0337  -25.3997  -35.7700 N   0  0  0  0  0  0  0  0  0  0  0  0
  -13.0875  -27.2020  -36.7821 O   0  0  0  0  0  0  0  0  0  0  0  0
  -15.8307  -26.7494  -36.1283 H   0  0  0  0  0  0  0  0  0  0  0  0
  -15.6012  -25.9083  -37.6774 H   0  0  0  0  0  0  0  0  0  0  0  0
  -16.3684  -25.0654  -36.3142 H   0  0  0  0  0  0  0  0  0  0  0  0
   -9.9684  -25.1735  -35.5506 H   0  0  0  0  0  0  0  0  0  0  0  0
  -10.4714  -26.3702  -36.7648 H   0  0  0  0  0  0  0  0  0  0  0  0
  -10.6141  -26.7470  -35.0343 H   0  0  0  0  0  0  0  0  0  0  0  0
  -14.2348  -24.4092  -35.7170 H   0  0  0  0  0  0  0  0  0  0  0  0
  -12.1617  -24.4570  -35.4157 H   0  0  0  0  0  0  0  0  0  0  0  0
  1  4  1  0  0  0  0
  1  5  1  0  0  0  0
  1  6  2  0  0  0  0
  2  4  1  0  0  0  0
  3  5  1  0  0  0  0
  2  7  1  0  0  0  0
  2  8  1  0  0  0  0
  2  9  1  0  0  0  0
  3 10  1  0  0  0  0
  3 11  1  0  0  0  0
  3 12  1  0  0  0  0
  4 13  1  0  0  0  0
  5 14  1  0  0  0  0
M  END
> <Name>
IA_71.cdx

> <SourceTag>
IA_71

> <Gold.Version>
5.2

> <Gold.Id.Protein>
6HGV|6HGV_protein|mol2

> <Gold.Goldscore.Fitness>
26.0760

> <Gold.Goldscore.Internal.Vdw>
-0.5647

> <Gold.Goldscore.Internal.Torsion>
-1.2265

> <Gold.Goldscore.External.Vdw>
14.4136

> <Gold.Goldscore.Internal.HBond>
0.0000

> <Gold.Goldscore.External.HBond>
6.3587

> <Gold.Goldscore.Internal.Correction>
-1.6898

> <Gold.Goldscore.Hbonds>
donor molecule, donor type, donor heavy atom, donor atom, acceptor molecule, acceptor atom, score
      P1  H  1247  3847       L1     6  0.13
      L1  H     4    13       P1   853  0.99
      L1  H     5    14       P1   853  0.03

> <Gold.Goldscore.Internal.Vdw.Weighted>
-0.5647

> <Gold.Goldscore.Internal.Torsion.Weighted>
-1.2265

> <Gold.Goldscore.External.Vdw.Weighted>
19.8187

> <Gold.Goldscore.Internal.HBond.Weighted>
0.0000

> <Gold.Goldscore.External.HBond.Weighted>
6.3587

> <Gold.Goldscore.Internal.Correction.Weighted>
-1.6898

> <Gold.Protein.RotatedTorsions>
[ 3781 1176 1175 1172 ] final  -38.20 input   60.00 | X-H torsion
[ 3847 1247 1246 1244 ] final  136.28 input   60.00 | X-H torsion
[ 4507 1931 1930 1928 ] final   47.49 input   60.00 | X-H torsion
[ 3677 1070 1069 1066 ] final -103.48 input   60.00 | X-H torsion
[ 3525  925  924  922 ] final  -45.58 input   59.99 | X-H torsion
[ 4531 1957 1955 1953 ] final  149.99 input   60.00 | X-H torsion

> <Gold.Protein.ActiveResidues>
 PHE267  PRO268  MET310  ASP335  TRP336  MET339  TYR343  THR360  PRO361  ILE363 
 PRO371  SER374  ILE375  ASN378  PHE381  TYR383  GLN384  PHE387  LEU408  LEU417 
 MET419  LEU428  TYR466  MET469  ASN472  ASP496  VAL498  LEU499  MET503  HIS524 
 TRP525 

> <Gold.Protein.RotatedAtoms>
   -3.7635  -29.5380  -29.7697 H   0  0  0  0  0  0  0  0  0  0  0  0  # atno 3525 bound_to 925 
  -11.6848  -23.7294  -31.4275 H   0  0  0  0  0  0  0  0  0  0  0  0  # atno 3677 bound_to 1070
  -10.5038  -36.8873  -34.0762 H   0  0  0  0  0  0  0  0  0  0  0  0  # atno 3781 bound_to 1176
  -14.3231  -28.0408  -37.8583 H   0  0  0  0  0  0  0  0  0  0  0  0  # atno 3847 bound_to 1247
  -12.7504  -24.8371  -38.7932 H   0  0  0  0  0  0  0  0  0  0  0  0  # atno 4507 bound_to 1931
   -1.9031  -34.0234  -36.8967 H   0  0  0  0  0  0  0  0  0  0  0  0  # atno 4531 bound_to 1957
   -9.2423  -36.3768  -33.1840 LP  0  0  0  0  0  0  0  0  0  0  0  0  # atno 5205 bound_to 1176
  -10.3614  -37.3690  -32.5284 LP  0  0  0  0  0  0  0  0  0  0  0  0  # atno 5206 bound_to 1176
  -15.4903  -28.8668  -37.0814 LP  0  0  0  0  0  0  0  0  0  0  0  0  # atno 5215 bound_to 1247
  -15.7571  -27.3299  -37.5646 LP  0  0  0  0  0  0  0  0  0  0  0  0  # atno 5216 bound_to 1247
  -13.7023  -25.1084  -40.0848 LP  0  0  0  0  0  0  0  0  0  0  0  0  # atno 5217 bound_to 1931
  -12.7443  -23.7868  -40.0361 LP  0  0  0  0  0  0  0  0  0  0  0  0  # atno 5218 bound_to 1931
  -11.3714  -22.2794  -30.7587 LP  0  0  0  0  0  0  0  0  0  0  0  0  # atno 5224 bound_to 1070
  -12.7997  -23.0196  -30.4781 LP  0  0  0  0  0  0  0  0  0  0  0  0  # atno 5225 bound_to 1070

$$$$
IA_135.cdx|SeH_inactivess_minimized|sdf|37|dock8
  -GOLD-   4172119243D 1   1.00000     0.00000

 34 35  0  0  0  0  0  0  0  0  1 V2000
  -21.8465  -24.2448  -37.7008 C   0  0  0  0  0  0  0  0  0  0  0  0
  -21.3179  -24.0844  -38.9781 C   0  0  0  0  0  0  0  0  0  0  0  0
  -21.0059  -24.5527  -36.6306 C   0  0  0  0  0  0  0  0  0  0  0  0
  -19.9469  -24.2313  -39.1904 C   0  0  0  0  0  0  0  0  0  0  0  0
  -18.7626  -25.0140  -35.7603 C   0  0  0  0  0  0  0  0  0  0  0  0
  -17.3915  -25.1609  -35.9726 C   0  0  0  0  0  0  0  0  0  0  0  0
  -17.7035  -24.6927  -38.3203 C   0  0  0  0  0  0  0  0  0  0  0  0
  -19.6234  -24.7043  -36.8259 C   0  0  0  0  0  0  0  0  0  0  0  0
  -19.0860  -24.5412  -38.1249 C   0  0  0  0  0  0  0  0  0  0  0  0
  -16.8630  -25.0005  -37.2501 C   0  0  0  0  0  0  0  0  0  0  0  0
  -14.5507  -25.8319  -36.6646 C   0  0  0  0  0  0  0  0  0  0  0  0
  -10.1589  -25.4958  -33.6147 C   0  0  0  0  0  0  0  0  0  0  0  0
  -12.1067  -26.3555  -36.6194 C   0  0  0  0  0  0  0  0  0  0  0  0
  -11.7257  -25.5931  -35.3635 C   0  0  0  0  0  0  0  0  0  0  0  0
  -15.4915  -25.1481  -37.4608 N   0  0  0  0  0  0  0  0  0  0  0  0
  -13.2705  -25.7467  -37.2214 N   0  0  0  0  0  0  0  0  0  0  0  0
  -14.7896  -26.4313  -35.6190 O   0  0  0  0  0  0  0  0  0  0  0  0
  -10.5110  -26.1177  -34.8429 O   0  0  0  0  0  0  0  0  0  0  0  0
  -22.9138  -24.1297  -37.5361 H   0  0  0  0  0  0  0  0  0  0  0  0
  -21.9730  -23.8450  -39.8107 H   0  0  0  0  0  0  0  0  0  0  0  0
  -21.4410  -24.6738  -35.6408 H   0  0  0  0  0  0  0  0  0  0  0  0
  -19.5557  -24.1019  -40.1974 H   0  0  0  0  0  0  0  0  0  0  0  0
  -19.1538  -25.1441  -34.7535 H   0  0  0  0  0  0  0  0  0  0  0  0
  -16.7459  -25.4011  -35.1314 H   0  0  0  0  0  0  0  0  0  0  0  0
  -17.2794  -24.5695  -39.3160 H   0  0  0  0  0  0  0  0  0  0  0  0
  -10.0718  -24.4168  -33.7636 H   0  0  0  0  0  0  0  0  0  0  0  0
   -9.2094  -25.9031  -33.2581 H   0  0  0  0  0  0  0  0  0  0  0  0
  -10.9395  -25.6978  -32.8774 H   0  0  0  0  0  0  0  0  0  0  0  0
  -11.2947  -26.3427  -37.3531 H   0  0  0  0  0  0  0  0  0  0  0  0
  -12.3525  -27.3933  -36.3751 H   0  0  0  0  0  0  0  0  0  0  0  0
  -12.5011  -25.7161  -34.6008 H   0  0  0  0  0  0  0  0  0  0  0  0
  -11.5904  -24.5257  -35.5660 H   0  0  0  0  0  0  0  0  0  0  0  0
  -15.1047  -24.7068  -38.3015 H   0  0  0  0  0  0  0  0  0  0  0  0
  -13.1535  -25.2331  -38.0892 H   0  0  0  0  0  0  0  0  0  0  0  0
  1  2  1  0  0  0  0
  1  3  2  0  0  0  0
  2  4  2  0  0  0  0
  3  8  1  0  0  0  0
  4  9  1  0  0  0  0
  5  6  1  0  0  0  0
  5  8  2  0  0  0  0
  6 10  2  0  0  0  0
  7  9  2  0  0  0  0
  7 10  1  0  0  0  0
  8  9  1  0  0  0  0
 10 15  1  0  0  0  0
 11 15  1  0  0  0  0
 11 16  1  0  0  0  0
 11 17  2  0  0  0  0
 12 18  1  0  0  0  0
 13 14  1  0  0  0  0
 13 16  1  0  0  0  0
 14 18  1  0  0  0  0
  1 19  1  0  0  0  0
  2 20  1  0  0  0  0
  3 21  1  0  0  0  0
  4 22  1  0  0  0  0
  5 23  1  0  0  0  0
  6 24  1  0  0  0  0
  7 25  1  0  0  0  0
 12 26  1  0  0  0  0
 12 27  1  0  0  0  0
 12 28  1  0  0  0  0
 13 29  1  0  0  0  0
 13 30  1  0  0  0  0
 14 31  1  0  0  0  0
 14 32  1  0  0  0  0
 15 33  1  0  0  0  0
 16 34  1  0  0  0  0
M  END
> <Name>
IA_135.cdx

> <SourceTag>
IA_135

> <Gold.Version>
5.2

> <Gold.Id.Protein>
6HGV|6HGV_protein|mol2

> <Gold.Goldscore.Fitness>
54.7926

> <Gold.Goldscore.Internal.Vdw>
-3.8626

> <Gold.Goldscore.Internal.Torsion>
-1.5564

> <Gold.Goldscore.External.Vdw>
39.0147

> <Gold.Goldscore.Internal.HBond>
0.0000

> <Gold.Goldscore.External.HBond>
2.0380

> <Gold.Goldscore.Internal.Correction>
-4.5283

> <Gold.Goldscore.Hbonds>
donor molecule, donor type, donor heavy atom, donor atom, acceptor molecule, acceptor atom, score
      L1  H    15    33       P1  1931  0.02
      L1  H    16    34       P1  1931  1.00

> <Gold.Goldscore.Internal.Vdw.Weighted>
-3.8626

> <Gold.Goldscore.Internal.Torsion.Weighted>
-1.5564

> <Gold.Goldscore.External.Vdw.Weighted>
53.6452

> <Gold.Goldscore.Internal.HBond.Weighted>
0.0000

> <Gold.Goldscore.External.HBond.Weighted>
2.0380

> <Gold.Goldscore.Internal.Correction.Weighted>
-4.5283

> <Gold.Protein.RotatedTorsions>
[ 3781 1176 1175 1172 ] final  138.22 input   60.00 | X-H torsion
[ 3847 1247 1246 1244 ] final  -43.21 input   60.00 | X-H torsion
[ 4507 1931 1930 1928 ] final -100.79 input   60.00 | X-H torsion
[ 3677 1070 1069 1066 ] final -136.17 input   60.00 | X-H torsion
[ 3525  925  924  922 ] final -161.94 input   59.99 | X-H torsion
[ 4531 1957 1955 1953 ] final  147.73 input   60.00 | X-H torsion

> <Gold.Protein.ActiveResidues>
 PHE267  PRO268  MET310  ASP335  TRP336  MET339  TYR343  THR360  PRO361  ILE363 
 PRO371  SER374  ILE375  ASN378  PHE381  TYR383  GLN384  PHE387  LEU408  LEU417 
 MET419  LEU428  TYR466  MET469  ASN472  ASP496  VAL498  LEU499  MET503  HIS524 
 TRP525 

> <Gold.Protein.RotatedAtoms>
   -2.4251  -30.1744  -29.1908 H   0  0  0  0  0  0  0  0  0  0  0  0  # atno 3525 bound_to 925 
  -11.2847  -23.3866  -31.4289 H   0  0  0  0  0  0  0  0  0  0  0  0  # atno 3677 bound_to 1070
   -9.6093  -36.9062  -32.4324 H   0  0  0  0  0  0  0  0  0  0  0  0  # atno 3781 bound_to 1176
  -16.0529  -28.1262  -37.1466 H   0  0  0  0  0  0  0  0  0  0  0  0  # atno 3847 bound_to 1247
  -13.6191  -24.7575  -40.3690 H   0  0  0  0  0  0  0  0  0  0  0  0  # atno 4507 bound_to 1931
   -1.9379  -34.0339  -36.8902 H   0  0  0  0  0  0  0  0  0  0  0  0  # atno 4531 bound_to 1957
  -10.8361  -37.3589  -33.4009 LP  0  0  0  0  0  0  0  0  0  0  0  0  # atno 5205 bound_to 1176
   -9.6683  -36.3678  -33.9669 LP  0  0  0  0  0  0  0  0  0  0  0  0  # atno 5206 bound_to 1176
  -14.8928  -27.2872  -37.9202 LP  0  0  0  0  0  0  0  0  0  0  0  0  # atno 5215 bound_to 1247
  -14.6126  -28.8234  -37.4425 LP  0  0  0  0  0  0  0  0  0  0  0  0  # atno 5216 bound_to 1247
  -12.5221  -23.8072  -39.6331 LP  0  0  0  0  0  0  0  0  0  0  0  0  # atno 5217 bound_to 1931
  -13.0496  -25.1682  -38.9010 LP  0  0  0  0  0  0  0  0  0  0  0  0  # atno 5218 bound_to 1931
  -11.8112  -22.1727  -30.4817 LP  0  0  0  0  0  0  0  0  0  0  0  0  # atno 5224 bound_to 1070
  -12.7628  -23.4716  -30.7536 LP  0  0  0  0  0  0  0  0  0  0  0  0  # atno 5225 bound_to 1070

$$$$
IA_58|SeH_inactivess_minimized|sdf|143|dock7
  -GOLD-   4172121583D 1   1.00000     0.00000

 59 63  0  0  0  0  0  0  0  0  1 V2000
  -13.5640  -25.1906  -37.2494 C   0  0  0  0  0  0  0  0  0  0  0  0
  -11.9591  -30.0823  -32.5019 C   0  0  0  0  0  0  0  0  0  0  0  0
  -11.0755  -30.2308  -33.7355 C   0  0  0  0  0  0  0  0  0  0  0  0
  -17.1580  -23.3002  -40.5990 C   0  0  0  0  0  0  0  0  0  0  0  0
  -18.2222  -22.8663  -38.3700 C   0  0  0  0  0  0  0  0  0  0  0  0
  -17.9476  -25.2198  -39.1913 C   0  0  0  0  0  0  0  0  0  0  0  0
  -15.7669  -22.4680  -38.6859 C   0  0  0  0  0  0  0  0  0  0  0  0
  -15.4920  -24.8240  -39.5082 C   0  0  0  0  0  0  0  0  0  0  0  0
  -16.5580  -24.3900  -37.2756 C   0  0  0  0  0  0  0  0  0  0  0  0
  -11.2691  -29.0373  -31.6300 C   0  0  0  0  0  0  0  0  0  0  0  0
   -8.9959  -28.9709  -34.5841 C   0  0  0  0  0  0  0  0  0  0  0  0
  -10.8423  -27.2542  -33.2171 C   0  0  0  0  0  0  0  0  0  0  0  0
  -17.1472  -22.3881  -39.3607 C   0  0  0  0  0  0  0  0  0  0  0  0
  -16.8711  -24.7537  -40.1862 C   0  0  0  0  0  0  0  0  0  0  0  0
  -17.9411  -24.3177  -37.9454 C   0  0  0  0  0  0  0  0  0  0  0  0
   -9.8017  -29.4657  -33.3809 C   0  0  1  0  0  0  0  0  0  0  0  0
   -9.9024  -26.7573  -34.3246 C   0  0  2  0  0  0  0  0  0  0  0  0
  -15.4614  -23.9200  -38.2558 C   0  0  0  0  0  0  0  0  0  0  0  0
  -10.5329  -25.5887  -35.0806 C   0  0  0  0  0  0  0  0  0  0  0  0
  -11.4807  -26.0436  -36.1838 C   0  0  0  0  0  0  0  0  0  0  0  0
   -9.6282  -27.8452  -35.2688 N   0  0  0  0  0  0  0  0  0  0  0  0
  -10.2603  -28.3895  -32.4823 N   0  0  2  0  0  0  0  0  0  0  0  0
  -14.1619  -23.9916  -37.6245 N   0  0  0  0  0  0  0  0  0  0  0  0
  -12.3190  -24.9712  -36.6656 N   0  0  0  0  0  0  0  0  0  0  0  0
  -14.0673  -26.3014  -37.4119 O   0  0  0  0  0  0  0  0  0  0  0  0
  -12.9630  -29.7555  -32.7948 H   0  0  0  0  0  0  0  0  0  0  0  0
  -12.0561  -31.0332  -31.9671 H   0  0  0  0  0  0  0  0  0  0  0  0
  -10.8676  -31.2829  -33.9561 H   0  0  0  0  0  0  0  0  0  0  0  0
  -11.5832  -29.8041  -34.6086 H   0  0  0  0  0  0  0  0  0  0  0  0
  -18.1317  -23.2388  -41.1004 H   0  0  0  0  0  0  0  0  0  0  0  0
  -16.4059  -22.9603  -41.3214 H   0  0  0  0  0  0  0  0  0  0  0  0
  -18.2359  -22.2139  -37.4884 H   0  0  0  0  0  0  0  0  0  0  0  0
  -19.2144  -22.7973  -38.8325 H   0  0  0  0  0  0  0  0  0  0  0  0
  -18.9349  -25.1921  -39.6681 H   0  0  0  0  0  0  0  0  0  0  0  0
  -17.7634  -26.2614  -38.9006 H   0  0  0  0  0  0  0  0  0  0  0  0
  -14.9942  -22.1048  -39.3763 H   0  0  0  0  0  0  0  0  0  0  0  0
  -15.7386  -21.8004  -37.8146 H   0  0  0  0  0  0  0  0  0  0  0  0
  -15.2647  -25.8622  -39.2325 H   0  0  0  0  0  0  0  0  0  0  0  0
  -14.7119  -24.5169  -40.2174 H   0  0  0  0  0  0  0  0  0  0  0  0
  -16.5492  -23.7694  -36.3699 H   0  0  0  0  0  0  0  0  0  0  0  0
  -16.3585  -25.4181  -36.9456 H   0  0  0  0  0  0  0  0  0  0  0  0
  -11.9778  -28.3324  -31.1808 H   0  0  0  0  0  0  0  0  0  0  0  0
  -10.7550  -29.5376  -30.8000 H   0  0  0  0  0  0  0  0  0  0  0  0
   -7.9938  -28.6694  -34.2528 H   0  0  0  0  0  0  0  0  0  0  0  0
   -8.8594  -29.7900  -35.2992 H   0  0  0  0  0  0  0  0  0  0  0  0
  -11.0214  -26.4364  -32.5078 H   0  0  0  0  0  0  0  0  0  0  0  0
  -11.8177  -27.5122  -33.6525 H   0  0  0  0  0  0  0  0  0  0  0  0
  -17.3534  -21.3546  -39.6603 H   0  0  0  0  0  0  0  0  0  0  0  0
  -16.8815  -25.3989  -41.0718 H   0  0  0  0  0  0  0  0  0  0  0  0
  -18.7109  -24.6532  -37.2415 H   0  0  0  0  0  0  0  0  0  0  0  0
   -9.1508  -30.1348  -32.8006 H   0  0  0  0  0  0  0  0  0  0  0  0
   -8.9612  -26.4045  -33.8832 H   0  0  0  0  0  0  0  0  0  0  0  0
   -9.7322  -24.9878  -35.5271 H   0  0  0  0  0  0  0  0  0  0  0  0
  -11.0641  -24.9446  -34.3698 H   0  0  0  0  0  0  0  0  0  0  0  0
  -10.9082  -26.4118  -37.0410 H   0  0  0  0  0  0  0  0  0  0  0  0
  -12.1342  -26.8508  -35.8384 H   0  0  0  0  0  0  0  0  0  0  0  0
   -9.0158  -27.5124  -36.0129 H   0  0  0  0  0  0  0  0  0  0  0  0
  -13.6627  -23.1265  -37.4468 H   0  0  0  0  0  0  0  0  0  0  0  0
  -11.9634  -24.0217  -36.6149 H   0  0  0  0  0  0  0  0  0  0  0  0
  1 23  1  0  0  0  0
  1 24  1  0  0  0  0
  1 25  2  0  0  0  0
  2  3  1  0  0  0  0
  2 10  1  0  0  0  0
  3 16  1  0  0  0  0
  4 13  1  0  0  0  0
  4 14  1  0  0  0  0
  5 13  1  0  0  0  0
  5 15  1  0  0  0  0
  6 14  1  0  0  0  0
  6 15  1  0  0  0  0
  7 13  1  0  0  0  0
  7 18  1  0  0  0  0
  8 14  1  0  0  0  0
  8 18  1  0  0  0  0
  9 15  1  0  0  0  0
  9 18  1  0  0  0  0
 10 22  1  0  0  0  0
 11 16  1  0  0  0  0
 11 21  1  0  0  0  0
 12 17  1  0  0  0  0
 12 22  1  0  0  0  0
 16 22  1  0  0  0  0
 17 19  1  0  0  0  0
 17 21  1  0  0  0  0
 18 23  1  0  0  0  0
 19 20  1  0  0  0  0
 20 24  1  0  0  0  0
  2 26  1  0  0  0  0
  2 27  1  0  0  0  0
  3 28  1  0  0  0  0
  3 29  1  0  0  0  0
  4 30  1  0  0  0  0
  4 31  1  0  0  0  0
  5 32  1  0  0  0  0
  5 33  1  0  0  0  0
  6 34  1  0  0  0  0
  6 35  1  0  0  0  0
  7 36  1  0  0  0  0
  7 37  1  0  0  0  0
  8 38  1  0  0  0  0
  8 39  1  0  0  0  0
  9 40  1  0  0  0  0
  9 41  1  0  0  0  0
 10 42  1  0  0  0  0
 10 43  1  0  0  0  0
 11 44  1  0  0  0  0
 11 45  1  0  0  0  0
 12 46  1  0  0  0  0
 12 47  1  0  0  0  0
 13 48  1  0  0  0  0
 14 49  1  0  0  0  0
 15 50  1  0  0  0  0
 16 51  1  0  0  0  0
 17 52  1  0  0  0  0
 19 53  1  0  0  0  0
 19 54  1  0  0  0  0
 20 55  1  0  0  0  0
 20 56  1  0  0  0  0
 21 57  1  0  0  0  0
 23 58  1  0  0  0  0
 24 59  1  0  0  0  0
M  END
> <Name>
IA_58

> <SourceTag>
IA_58

> <Gold.Version>
5.2

> <Gold.Id.Protein>
6HGV|6HGV_protein|mol2

> <Gold.Goldscore.Fitness>
57.0906

> <Gold.Goldscore.Internal.Vdw>
-3.5152

> <Gold.Goldscore.Internal.Torsion>
-2.5522

> <Gold.Goldscore.External.Vdw>
39.7926

> <Gold.Goldscore.Internal.HBond>
0.0000

> <Gold.Goldscore.External.HBond>
4.1003

> <Gold.Goldscore.Internal.Correction>
-4.3429

> <Gold.Goldscore.Hbonds>
donor molecule, donor type, donor heavy atom, donor atom, acceptor molecule, acceptor atom, score
      P1  H  1247  3847       L1    25  0.41
      L1  H    23    58       P1   854  0.45
      L1  H    24    59       P1   854  0.09

> <Gold.Goldscore.Internal.Vdw.Weighted>
-3.5152

> <Gold.Goldscore.Internal.Torsion.Weighted>
-2.5522

> <Gold.Goldscore.External.Vdw.Weighted>
54.7148

> <Gold.Goldscore.Internal.HBond.Weighted>
0.0000

> <Gold.Goldscore.External.HBond.Weighted>
4.1003

> <Gold.Goldscore.Internal.Correction.Weighted>
-4.3429

> <Gold.Protein.RotatedTorsions>
[ 3781 1176 1175 1172 ] final   48.64 input   60.00 | X-H torsion
[ 3847 1247 1246 1244 ] final -175.93 input   60.00 | X-H torsion
[ 4507 1931 1930 1928 ] final  138.49 input   60.00 | X-H torsion
[ 3677 1070 1069 1066 ] final -113.28 input   60.00 | X-H torsion
[ 3525  925  924  922 ] final  -61.48 input   59.99 | X-H torsion
[ 4531 1957 1955 1953 ] final  150.77 input   60.00 | X-H torsion

> <Gold.Protein.ActiveResidues>
 PHE267  PRO268  MET310  ASP335  TRP336  MET339  TYR343  THR360  PRO361  ILE363 
 PRO371  SER374  ILE375  ASN378  PHE381  TYR383  GLN384  PHE387  LEU408  LEU417 
 MET419  LEU428  TYR466  MET469  ASN472  ASP496  VAL498  LEU499  MET503  HIS524 
 TRP525 

> <Gold.Protein.RotatedAtoms>
   -3.6970  -29.5893  -29.5248 H   0  0  0  0  0  0  0  0  0  0  0  0  # atno 3525 bound_to 925 
  -11.5493  -23.6467  -31.4470 H   0  0  0  0  0  0  0  0  0  0  0  0  # atno 3677 bound_to 1070
  -10.7025  -37.4474  -32.9347 H   0  0  0  0  0  0  0  0  0  0  0  0  # atno 3781 bound_to 1176
  -14.7205  -27.4009  -37.9471 H   0  0  0  0  0  0  0  0  0  0  0  0  # atno 3847 bound_to 1247
  -12.5201  -23.8168  -39.6235 H   0  0  0  0  0  0  0  0  0  0  0  0  # atno 4507 bound_to 1931
   -1.8912  -34.0195  -36.8989 H   0  0  0  0  0  0  0  0  0  0  0  0  # atno 4531 bound_to 1957
  -10.0782  -36.5707  -34.1552 LP  0  0  0  0  0  0  0  0  0  0  0  0  # atno 5205 bound_to 1176
   -9.3253  -36.6110  -32.7067 LP  0  0  0  0  0  0  0  0  0  0  0  0  # atno 5206 bound_to 1176
  -14.7748  -28.9117  -37.3451 LP  0  0  0  0  0  0  0  0  0  0  0  0  # atno 5215 bound_to 1247
  -16.0724  -27.9294  -37.2116 LP  0  0  0  0  0  0  0  0  0  0  0  0  # atno 5216 bound_to 1247
  -13.0576  -25.1751  -38.9064 LP  0  0  0  0  0  0  0  0  0  0  0  0  # atno 5217 bound_to 1931
  -13.6209  -24.7476  -40.3784 LP  0  0  0  0  0  0  0  0  0  0  0  0  # atno 5218 bound_to 1931
  -11.4895  -22.2199  -30.6668 LP  0  0  0  0  0  0  0  0  0  0  0  0  # atno 5224 bound_to 1070
  -12.8180  -23.1624  -30.5504 LP  0  0  0  0  0  0  0  0  0  0  0  0  # atno 5225 bound_to 1070

$$$$
IA_207.cdx|SeH_inactivess_minimized|sdf|104|dock5
  -GOLD-   4172120503D 1   1.00000     0.00000

 24 24  0  0  0  0  0  0  0  0  1 V2000
   -6.7017  -29.1366  -34.9956 C   0  0  0  0  0  0  0  0  0  0  0  0
   -5.7283  -30.1224  -34.8338 C   0  0  0  0  0  0  0  0  0  0  0  0
   -8.2533  -30.8018  -35.8060 C   0  0  0  0  0  0  0  0  0  0  0  0
   -7.9643  -29.4763  -35.4817 C   0  0  0  0  0  0  0  0  0  0  0  0
   -6.0173  -31.4479  -35.1581 C   0  0  0  0  0  0  0  0  0  0  0  0
   -7.2798  -31.7875  -35.6442 C   0  0  0  0  0  0  0  0  0  0  0  0
   -8.9929  -27.2106  -35.0515 C   0  0  0  0  0  0  0  0  0  0  0  0
  -10.4893  -25.2200  -34.7130 C   0  0  0  0  0  0  0  0  0  0  0  0
  -10.9882  -26.8158  -36.5337 C   0  0  0  0  0  0  0  0  0  0  0  0
   -8.9532  -28.4746  -35.6453 N   0  0  0  0  0  0  0  0  0  0  0  0
  -10.1200  -26.4397  -35.4199 N   0  0  0  0  0  0  0  0  0  0  0  0
   -8.1480  -26.7888  -34.2588 O   0  0  0  0  0  0  0  0  0  0  0  0
   -4.7682  -32.6225  -34.9384 Cl  0  0  0  0  0  0  0  0  0  0  0  0
   -7.6973  -33.4115  -36.0655 Cl  0  0  0  0  0  0  0  0  0  0  0  0
   -6.4666  -28.1069  -34.7384 H   0  0  0  0  0  0  0  0  0  0  0  0
   -4.7503  -29.8397  -34.4522 H   0  0  0  0  0  0  0  0  0  0  0  0
   -9.2397  -31.0604  -36.1861 H   0  0  0  0  0  0  0  0  0  0  0  0
  -10.4711  -24.3684  -35.3982 H   0  0  0  0  0  0  0  0  0  0  0  0
   -9.7880  -25.0294  -33.8961 H   0  0  0  0  0  0  0  0  0  0  0  0
  -11.4956  -25.3147  -34.2960 H   0  0  0  0  0  0  0  0  0  0  0  0
  -11.6694  -25.9949  -36.7729 H   0  0  0  0  0  0  0  0  0  0  0  0
  -11.5786  -27.6979  -36.2717 H   0  0  0  0  0  0  0  0  0  0  0  0
  -10.3891  -27.0452  -37.4191 H   0  0  0  0  0  0  0  0  0  0  0  0
   -9.7228  -28.7020  -36.2666 H   0  0  0  0  0  0  0  0  0  0  0  0
  1  2  2  0  0  0  0
  1  4  1  0  0  0  0
  2  5  1  0  0  0  0
  3  4  2  0  0  0  0
  3  6  1  0  0  0  0
  4 10  1  0  0  0  0
  5  6  2  0  0  0  0
  5 13  1  0  0  0  0
  6 14  1  0  0  0  0
  7 10  1  0  0  0  0
  7 11  1  0  0  0  0
  7 12  2  0  0  0  0
  8 11  1  0  0  0  0
  9 11  1  0  0  0  0
  1 15  1  0  0  0  0
  2 16  1  0  0  0  0
  3 17  1  0  0  0  0
  8 18  1  0  0  0  0
  8 19  1  0  0  0  0
  8 20  1  0  0  0  0
  9 21  1  0  0  0  0
  9 22  1  0  0  0  0
  9 23  1  0  0  0  0
 10 24  1  0  0  0  0
M  END
> <Name>
IA_207.cdx

> <SourceTag>
IA_207

> <Gold.Version>
5.2

> <Gold.Id.Protein>
6HGV|6HGV_protein|mol2

> <Gold.Goldscore.Fitness>
46.4762

> <Gold.Goldscore.Internal.Vdw>
-10.4517

> <Gold.Goldscore.Internal.Torsion>
-3.0561

> <Gold.Goldscore.External.Vdw>
34.8394

> <Gold.Goldscore.Internal.HBond>
0.0000

> <Gold.Goldscore.External.HBond>
0.0000

> <Gold.Goldscore.Internal.Correction>
-12.0797

> <Gold.Goldscore.Internal.Vdw.Weighted>
-10.4517

> <Gold.Goldscore.Internal.Torsion.Weighted>
-3.0561

> <Gold.Goldscore.External.Vdw.Weighted>
47.9042

> <Gold.Goldscore.Internal.HBond.Weighted>
0.0000

> <Gold.Goldscore.External.HBond.Weighted>
0.0000

> <Gold.Goldscore.Internal.Correction.Weighted>
-12.0797

> <Gold.Protein.RotatedTorsions>
[ 3781 1176 1175 1172 ] final  -99.05 input   60.00 | X-H torsion
[ 3847 1247 1246 1244 ] final  153.01 input   60.00 | X-H torsion
[ 4507 1931 1930 1928 ] final   84.73 input   60.00 | X-H torsion
[ 3677 1070 1069 1066 ] final -126.87 input   60.00 | X-H torsion
[ 3525  925  924  922 ] final   20.38 input   59.99 | X-H torsion
[ 4531 1957 1955 1953 ] final  -13.08 input   60.00 | X-H torsion

> <Gold.Protein.ActiveResidues>
 PHE267  PRO268  MET310  ASP335  TRP336  MET339  TYR343  THR360  PRO361  ILE363 
 PRO371  SER374  ILE375  ASN378  PHE381  TYR383  GLN384  PHE387  LEU408  LEU417 
 MET419  LEU428  TYR466  MET469  ASN472  ASP496  VAL498  LEU499  MET503  HIS524 
 TRP525 

> <Gold.Protein.RotatedAtoms>
   -3.3733  -29.6223  -30.7076 H   0  0  0  0  0  0  0  0  0  0  0  0  # atno 3525 bound_to 925 
  -11.3815  -23.5020  -31.4470 H   0  0  0  0  0  0  0  0  0  0  0  0  # atno 3677 bound_to 1070
   -9.7035  -36.3862  -33.9885 H   0  0  0  0  0  0  0  0  0  0  0  0  # atno 3781 bound_to 1176
  -14.4038  -27.7887  -37.9230 H   0  0  0  0  0  0  0  0  0  0  0  0  # atno 3847 bound_to 1247
  -12.4819  -24.3260  -38.9483 H   0  0  0  0  0  0  0  0  0  0  0  0  # atno 4507 bound_to 1931
   -2.6986  -32.3605  -36.7167 H   0  0  0  0  0  0  0  0  0  0  0  0  # atno 4531 bound_to 1957
   -9.5760  -36.8772  -32.4423 LP  0  0  0  0  0  0  0  0  0  0  0  0  # atno 5205 bound_to 1176
  -10.8336  -37.3731  -33.3584 LP  0  0  0  0  0  0  0  0  0  0  0  0  # atno 5206 bound_to 1176
  -15.2380  -28.9514  -37.1481 LP  0  0  0  0  0  0  0  0  0  0  0  0  # atno 5215 bound_to 1247
  -15.9282  -27.4991  -37.4328 LP  0  0  0  0  0  0  0  0  0  0  0  0  # atno 5216 bound_to 1247
  -13.5744  -25.3673  -39.5566 LP  0  0  0  0  0  0  0  0  0  0  0  0  # atno 5217 bound_to 1931
  -13.1426  -24.0426  -40.4082 LP  0  0  0  0  0  0  0  0  0  0  0  0  # atno 5218 bound_to 1931
  -11.6749  -22.1759  -30.5506 LP  0  0  0  0  0  0  0  0  0  0  0  0  # atno 5224 bound_to 1070
  -12.8016  -23.3522  -30.6665 LP  0  0  0  0  0  0  0  0  0  0  0  0  # atno 5225 bound_to 1070

$$$$
IA_173.cdx|SeH_inactivess_minimized|sdf|76|dock9
  -GOLD-   4172120183D 1   1.00000     0.00000

 31 30  0  0  0  0  0  0  0  0  1 V2000
   -7.7116  -28.6970  -34.8611 C   0  0  0  0  0  0  0  0  0  0  0  0
  -10.7855  -32.2296  -35.1387 C   0  0  0  0  0  0  0  0  0  0  0  0
   -4.2032  -31.8442  -34.6789 C   0  0  0  0  0  0  0  0  0  0  0  0
  -10.6294  -25.7661  -35.0585 C   0  0  0  0  0  0  0  0  0  0  0  0
   -9.7993  -31.2225  -34.5640 C   0  0  0  0  0  0  0  0  0  0  0  0
   -5.4050  -31.1487  -35.3022 C   0  0  0  0  0  0  0  0  0  0  0  0
   -8.6227  -30.9534  -35.4944 C   0  0  0  0  0  0  0  0  0  0  0  0
   -6.4830  -30.8067  -34.2807 C   0  0  0  0  0  0  0  0  0  0  0  0
   -9.3980  -26.5272  -34.6056 C   0  0  0  0  0  0  0  0  0  0  0  0
   -7.6084  -30.0971  -34.8773 N   0  0  0  0  0  0  0  0  0  0  0  0
   -6.8766  -27.9531  -34.3510 O   0  0  0  0  0  0  0  0  0  0  0  0
   -9.1635  -28.0099  -35.6101 S   0  0  0  0  0  0  0  0  0  0  0  0
  -11.6324  -32.3792  -34.4615 H   0  0  0  0  0  0  0  0  0  0  0  0
  -11.1769  -31.8694  -36.0956 H   0  0  0  0  0  0  0  0  0  0  0  0
  -10.3091  -33.1989  -35.3147 H   0  0  0  0  0  0  0  0  0  0  0  0
   -3.7518  -31.2231  -33.8986 H   0  0  0  0  0  0  0  0  0  0  0  0
   -4.5108  -32.7904  -34.2222 H   0  0  0  0  0  0  0  0  0  0  0  0
   -3.4378  -32.0668  -35.4285 H   0  0  0  0  0  0  0  0  0  0  0  0
  -10.5543  -25.4689  -36.1099 H   0  0  0  0  0  0  0  0  0  0  0  0
  -11.5404  -26.3603  -34.9286 H   0  0  0  0  0  0  0  0  0  0  0  0
  -10.7425  -24.8531  -34.4644 H   0  0  0  0  0  0  0  0  0  0  0  0
   -9.4169  -31.6105  -33.6127 H   0  0  0  0  0  0  0  0  0  0  0  0
  -10.3270  -30.2870  -34.3441 H   0  0  0  0  0  0  0  0  0  0  0  0
   -5.8358  -31.8090  -36.0638 H   0  0  0  0  0  0  0  0  0  0  0  0
   -5.0692  -30.2390  -35.8140 H   0  0  0  0  0  0  0  0  0  0  0  0
   -8.1300  -31.8949  -35.7568 H   0  0  0  0  0  0  0  0  0  0  0  0
   -8.9507  -30.4708  -36.4204 H   0  0  0  0  0  0  0  0  0  0  0  0
   -6.8823  -31.7238  -33.8364 H   0  0  0  0  0  0  0  0  0  0  0  0
   -6.0831  -30.1836  -33.4745 H   0  0  0  0  0  0  0  0  0  0  0  0
   -9.4999  -26.8242  -33.5573 H   0  0  0  0  0  0  0  0  0  0  0  0
   -8.5084  -25.8966  -34.6953 H   0  0  0  0  0  0  0  0  0  0  0  0
  1 10  1  0  0  0  0
  1 11  2  0  0  0  0
  1 12  1  0  0  0  0
  2  5  1  0  0  0  0
  3  6  1  0  0  0  0
  4  9  1  0  0  0  0
  5  7  1  0  0  0  0
  6  8  1  0  0  0  0
  7 10  1  0  0  0  0
  8 10  1  0  0  0  0
  9 12  1  0  0  0  0
  2 13  1  0  0  0  0
  2 14  1  0  0  0  0
  2 15  1  0  0  0  0
  3 16  1  0  0  0  0
  3 17  1  0  0  0  0
  3 18  1  0  0  0  0
  4 19  1  0  0  0  0
  4 20  1  0  0  0  0
  4 21  1  0  0  0  0
  5 22  1  0  0  0  0
  5 23  1  0  0  0  0
  6 24  1  0  0  0  0
  6 25  1  0  0  0  0
  7 26  1  0  0  0  0
  7 27  1  0  0  0  0
  8 28  1  0  0  0  0
  8 29  1  0  0  0  0
  9 30  1  0  0  0  0
  9 31  1  0  0  0  0
M  END
> <Name>
IA_173.cdx

> <SourceTag>
IA_173

> <Gold.Version>
5.2

> <Gold.Id.Protein>
6HGV|6HGV_protein|mol2

> <Gold.Goldscore.Fitness>
41.2966

> <Gold.Goldscore.Internal.Vdw>
-2.9580

> <Gold.Goldscore.Internal.Torsion>
-1.8401

> <Gold.Goldscore.External.Vdw>
30.5323

> <Gold.Goldscore.Internal.HBond>
0.0000

> <Gold.Goldscore.External.HBond>
0.0000

> <Gold.Goldscore.Internal.Correction>
-4.1128

> <Gold.Goldscore.Internal.Vdw.Weighted>
-2.9580

> <Gold.Goldscore.Internal.Torsion.Weighted>
-1.8401

> <Gold.Goldscore.External.Vdw.Weighted>
41.9820

> <Gold.Goldscore.Internal.HBond.Weighted>
0.0000

> <Gold.Goldscore.External.HBond.Weighted>
0.0000

> <Gold.Goldscore.Internal.Correction.Weighted>
-4.1128

> <Gold.Protein.RotatedTorsions>
[ 3781 1176 1175 1172 ] final -101.13 input   60.00 | X-H torsion
[ 3847 1247 1246 1244 ] final   97.24 input   60.00 | X-H torsion
[ 4507 1931 1930 1928 ] final   65.51 input   60.00 | X-H torsion
[ 3677 1070 1069 1066 ] final -110.96 input   60.00 | X-H torsion
[ 3525  925  924  922 ] final   65.99 input   59.99 | X-H torsion
[ 4531 1957 1955 1953 ] final  111.33 input   60.00 | X-H torsion

> <Gold.Protein.ActiveResidues>
 PHE267  PRO268  MET310  ASP335  TRP336  MET339  TYR343  THR360  PRO361  ILE363 
 PRO371  SER374  ILE375  ASN378  PHE381  TYR383  GLN384  PHE387  LEU408  LEU417 
 MET419  LEU428  TYR466  MET469  ASN472  ASP496  VAL498  LEU499  MET503  HIS524 
 TRP525 

> <Gold.Protein.RotatedAtoms>
   -2.7168  -29.8951  -30.8534 H   0  0  0  0  0  0  0  0  0  0  0  0  # atno 3525 bound_to 925 
  -11.5804  -23.6680  -31.4438 H   0  0  0  0  0  0  0  0  0  0  0  0  # atno 3677 bound_to 1070
   -9.6776  -36.3762  -33.9690 H   0  0  0  0  0  0  0  0  0  0  0  0  # atno 3781 bound_to 1176
  -14.4200  -28.6043  -37.6046 H   0  0  0  0  0  0  0  0  0  0  0  0  # atno 3847 bound_to 1247
  -12.5958  -24.5901  -38.8260 H   0  0  0  0  0  0  0  0  0  0  0  0  # atno 4507 bound_to 1931
   -2.5118  -34.0052  -36.7807 H   0  0  0  0  0  0  0  0  0  0  0  0  # atno 4531 bound_to 1957
   -9.6000  -36.8980  -32.4296 LP  0  0  0  0  0  0  0  0  0  0  0  0  # atno 5205 bound_to 1176
  -10.8357  -37.3624  -33.3908 LP  0  0  0  0  0  0  0  0  0  0  0  0  # atno 5206 bound_to 1176
  -15.9467  -28.4328  -37.0683 LP  0  0  0  0  0  0  0  0  0  0  0  0  # atno 5215 bound_to 1247
  -15.2032  -27.1963  -37.8332 LP  0  0  0  0  0  0  0  0  0  0  0  0  # atno 5216 bound_to 1247
  -13.6721  -25.2700  -39.8396 LP  0  0  0  0  0  0  0  0  0  0  0  0  # atno 5217 bound_to 1931
  -12.9302  -23.8739  -40.2484 LP  0  0  0  0  0  0  0  0  0  0  0  0  # atno 5218 bound_to 1931
  -11.4603  -22.2319  -30.6880 LP  0  0  0  0  0  0  0  0  0  0  0  0  # atno 5224 bound_to 1070
  -12.8160  -23.1289  -30.5323 LP  0  0  0  0  0  0  0  0  0  0  0  0  # atno 5225 bound_to 1070

$$$$
IA_108.cdx|SeH_inactivess_minimized|sdf|10|dock10
  -GOLD-   4172118453D 1   1.00000     0.00000

 29 29  0  0  0  0  0  0  0  0  1 V2000
  -15.8449  -24.6520  -40.6837 C   0  0  0  0  0  0  0  0  0  0  0  0
  -16.0449  -24.8578  -39.5180 C   0  0  0  0  0  0  0  0  0  0  0  0
  -13.9239  -25.5201  -37.4513 C   0  0  0  0  0  0  0  0  0  0  0  0
  -11.2367  -26.4881  -33.6921 C   0  0  0  0  0  0  0  0  0  0  0  0
  -11.1922  -25.0066  -34.0571 C   0  0  0  0  0  0  0  0  0  0  0  0
  -12.0933  -27.2898  -34.6684 C   0  0  0  0  0  0  0  0  0  0  0  0
  -10.7488  -24.7971  -35.5056 C   0  0  0  0  0  0  0  0  0  0  0  0
  -11.6476  -27.0750  -36.1154 C   0  0  0  0  0  0  0  0  0  0  0  0
  -11.5950  -25.5926  -36.5085 C   0  0  0  0  0  0  0  0  0  0  0  0
  -16.2942  -25.1080  -38.0962 C   0  0  0  0  0  0  0  0  0  0  0  0
  -12.9490  -25.0391  -36.5809 N   0  0  0  0  0  0  0  0  0  0  0  0
  -15.1170  -24.8151  -37.3130 N   0  0  0  0  0  0  0  0  0  0  0  0
  -13.7549  -26.4485  -38.2407 O   0  0  0  0  0  0  0  0  0  0  0  0
  -15.6672  -24.4699  -41.7179 H   0  0  0  0  0  0  0  0  0  0  0  0
  -10.2180  -26.8944  -33.6760 H   0  0  0  0  0  0  0  0  0  0  0  0
  -11.6396  -26.6009  -32.6769 H   0  0  0  0  0  0  0  0  0  0  0  0
  -12.1810  -24.5598  -33.9071 H   0  0  0  0  0  0  0  0  0  0  0  0
  -10.4993  -24.4854  -33.3857 H   0  0  0  0  0  0  0  0  0  0  0  0
  -12.0278  -28.3562  -34.4220 H   0  0  0  0  0  0  0  0  0  0  0  0
  -13.1441  -27.0000  -34.5607 H   0  0  0  0  0  0  0  0  0  0  0  0
  -10.7955  -23.7212  -35.7491 H   0  0  0  0  0  0  0  0  0  0  0  0
   -9.6867  -25.0776  -35.6056 H   0  0  0  0  0  0  0  0  0  0  0  0
  -10.6571  -27.5374  -36.2640 H   0  0  0  0  0  0  0  0  0  0  0  0
  -12.3319  -27.6162  -36.7920 H   0  0  0  0  0  0  0  0  0  0  0  0
  -11.1747  -25.4915  -37.5058 H   0  0  0  0  0  0  0  0  0  0  0  0
  -16.5782  -26.1530  -37.9380 H   0  0  0  0  0  0  0  0  0  0  0  0
  -17.1236  -24.4859  -37.7452 H   0  0  0  0  0  0  0  0  0  0  0  0
  -13.1885  -24.2667  -35.9664 H   0  0  0  0  0  0  0  0  0  0  0  0
  -15.1787  -24.0934  -36.6018 H   0  0  0  0  0  0  0  0  0  0  0  0
  1  2  3  0  0  0  0
  2 10  1  0  0  0  0
  3 11  1  0  0  0  0
  3 12  1  0  0  0  0
  3 13  2  0  0  0  0
  4  5  1  0  0  0  0
  4  6  1  0  0  0  0
  5  7  1  0  0  0  0
  6  8  1  0  0  0  0
  7  9  1  0  0  0  0
  8  9  1  0  0  0  0
  9 11  1  0  0  0  0
 10 12  1  0  0  0  0
  1 14  1  0  0  0  0
  4 15  1  0  0  0  0
  4 16  1  0  0  0  0
  5 17  1  0  0  0  0
  5 18  1  0  0  0  0
  6 19  1  0  0  0  0
  6 20  1  0  0  0  0
  7 21  1  0  0  0  0
  7 22  1  0  0  0  0
  8 23  1  0  0  0  0
  8 24  1  0  0  0  0
  9 25  1  0  0  0  0
 10 26  1  0  0  0  0
 10 27  1  0  0  0  0
 11 28  1  0  0  0  0
 12 29  1  0  0  0  0
M  END
> <Name>
IA_108.cdx

> <SourceTag>
IA_108

> <Gold.Version>
5.2

> <Gold.Id.Protein>
6HGV|6HGV_protein|mol2

> <Gold.Goldscore.Fitness>
46.0982

> <Gold.Goldscore.Internal.Vdw>
-0.8003

> <Gold.Goldscore.Internal.Torsion>
-1.2055

> <Gold.Goldscore.External.Vdw>
29.1863

> <Gold.Goldscore.Internal.HBond>
0.0000

> <Gold.Goldscore.External.HBond>
6.4643

> <Gold.Goldscore.Internal.Correction>
-1.5085

> <Gold.Goldscore.Hbonds>
donor molecule, donor type, donor heavy atom, donor atom, acceptor molecule, acceptor atom, score
      P1  H  1247  3847       L1    13  0.09
      L1  H    11    28       P1   853  0.85
      L1  H    12    29       P1   853  0.20

> <Gold.Goldscore.Internal.Vdw.Weighted>
-0.8003

> <Gold.Goldscore.Internal.Torsion.Weighted>
-1.2055

> <Gold.Goldscore.External.Vdw.Weighted>
40.1312

> <Gold.Goldscore.Internal.HBond.Weighted>
0.0000

> <Gold.Goldscore.External.HBond.Weighted>
6.4643

> <Gold.Goldscore.Internal.Correction.Weighted>
-1.5085

> <Gold.Protein.RotatedTorsions>
[ 3781 1176 1175 1172 ] final  -40.38 input   60.00 | X-H torsion
[ 3847 1247 1246 1244 ] final  147.82 input   60.00 | X-H torsion
[ 4507 1931 1930 1928 ] final  120.69 input   60.00 | X-H torsion
[ 3677 1070 1069 1066 ] final  -71.13 input   60.00 | X-H torsion
[ 3525  925  924  922 ] final  145.70 input   59.99 | X-H torsion
[ 4531 1957 1955 1953 ] final   39.49 input   60.00 | X-H torsion

> <Gold.Protein.ActiveResidues>
 PHE267  PRO268  MET310  ASP335  TRP336  MET339  TYR343  THR360  PRO361  ILE363 
 PRO371  SER374  ILE375  ASN378  PHE381  TYR383  GLN384  PHE387  LEU408  LEU417 
 MET419  LEU428  TYR466  MET469  ASN472  ASP496  VAL498  LEU499  MET503  HIS524 
 TRP525 

> <Gold.Protein.RotatedAtoms>
   -2.0561  -30.2682  -29.9238 H   0  0  0  0  0  0  0  0  0  0  0  0  # atno 3525 bound_to 925 
  -12.1643  -23.8452  -31.2576 H   0  0  0  0  0  0  0  0  0  0  0  0  # atno 3677 bound_to 1070
  -10.4790  -36.8656  -34.0899 H   0  0  0  0  0  0  0  0  0  0  0  0  # atno 3781 bound_to 1176
  -14.3712  -27.8652  -37.9065 H   0  0  0  0  0  0  0  0  0  0  0  0  # atno 3847 bound_to 1247
  -12.4474  -23.9282  -39.3661 H   0  0  0  0  0  0  0  0  0  0  0  0  # atno 4507 bound_to 1931
   -3.0976  -33.0847  -36.6534 H   0  0  0  0  0  0  0  0  0  0  0  0  # atno 4531 bound_to 1957
   -9.2396  -36.3878  -33.1499 LP  0  0  0  0  0  0  0  0  0  0  0  0  # atno 5205 bound_to 1176
  -10.3889  -37.3798  -32.5486 LP  0  0  0  0  0  0  0  0  0  0  0  0  # atno 5206 bound_to 1176
  -15.3177  -28.9328  -37.1239 LP  0  0  0  0  0  0  0  0  0  0  0  0  # atno 5215 bound_to 1247
  -15.8813  -27.4406  -37.4736 LP  0  0  0  0  0  0  0  0  0  0  0  0  # atno 5216 bound_to 1247
  -13.2527  -25.3119  -39.0748 LP  0  0  0  0  0  0  0  0  0  0  0  0  # atno 5217 bound_to 1931
  -13.4991  -24.4986  -40.4692 LP  0  0  0  0  0  0  0  0  0  0  0  0  # atno 5218 bound_to 1931
  -11.1168  -22.6134  -31.0742 LP  0  0  0  0  0  0  0  0  0  0  0  0  # atno 5224 bound_to 1070
  -12.5715  -22.5690  -30.3336 LP  0  0  0  0  0  0  0  0  0  0  0  0  # atno 5225 bound_to 1070

$$$$
IA_14|SeH_inactivess_minimized|sdf|42|dock9
  -GOLD-   4172119333D 1   1.00000     0.00000

 61 63  0  0  0  0  0  0  0  0  1 V2000
  -15.2106  -25.0722  -37.3392 C   0  0  0  0  0  0  0  0  0  0  0  0
  -17.1543  -24.3527  -40.4198 C   0  0  0  0  0  0  0  0  0  0  0  0
   -8.0552  -28.5699  -34.3142 C   0  0  0  0  0  0  0  0  0  0  0  0
   -4.4046  -32.0468  -32.7312 C   0  0  0  0  0  0  0  0  0  0  0  0
   -4.1578  -31.2548  -35.0979 C   0  0  0  0  0  0  0  0  0  0  0  0
   -5.5784  -33.2574  -34.5877 C   0  0  0  0  0  0  0  0  0  0  0  0
   -5.4771  -29.8982  -33.4527 C   0  0  0  0  0  0  0  0  0  0  0  0
   -6.8991  -31.9029  -32.9420 C   0  0  0  0  0  0  0  0  0  0  0  0
   -6.6522  -31.1102  -35.3125 C   0  0  0  0  0  0  0  0  0  0  0  0
   -4.2489  -30.8077  -33.6289 C   0  0  0  0  0  0  0  0  0  0  0  0
   -5.6767  -32.8207  -33.1161 C   0  0  0  0  0  0  0  0  0  0  0  0
   -5.4287  -32.0247  -35.4954 C   0  0  0  0  0  0  0  0  0  0  0  0
   -6.7669  -30.6542  -33.8419 C   0  0  0  0  0  0  0  0  0  0  0  0
  -13.7010  -25.2393  -37.2956 C   0  0  0  0  0  0  0  0  0  0  0  0
  -13.1808  -25.8004  -35.9727 C   0  0  0  0  0  0  0  0  0  0  0  0
  -11.6553  -25.9366  -35.8843 C   0  0  0  0  0  0  0  0  0  0  0  0
  -11.1699  -26.5018  -34.5452 C   0  0  0  0  0  0  0  0  0  0  0  0
   -9.6536  -26.6686  -34.4983 C   0  0  0  0  0  0  0  0  0  0  0  0
  -17.6277  -23.3173  -38.1995 C   0  0  0  0  0  0  0  0  0  0  0  0
  -17.0486  -24.5263  -38.9191 C   0  0  2  0  0  0  0  0  0  0  0  0
  -15.6516  -24.7150  -38.6050 N   0  0  0  0  0  0  0  0  0  0  0  0
   -7.9198  -29.7970  -33.6728 N   0  0  0  0  0  0  0  0  0  0  0  0
   -9.2574  -27.9545  -33.9746 N   0  0  0  0  0  0  0  0  0  0  0  0
  -15.9369  -25.2637  -36.3675 O   0  0  0  0  0  0  0  0  0  0  0  0
  -17.5169  -23.3302  -40.9872 O   0  0  0  0  0  0  0  0  0  0  0  0
   -7.2231  -28.0890  -35.0823 O   0  0  0  0  0  0  0  0  0  0  0  0
  -16.8430  -25.4953  -41.0860 O   0  0  0  0  0  0  0  0  0  0  0  0
  -18.9500  -23.0833  -38.6684 O   0  0  0  0  0  0  0  0  0  0  0  0
   -3.5260  -32.6955  -32.8335 H   0  0  0  0  0  0  0  0  0  0  0  0
   -4.4552  -31.7429  -31.6784 H   0  0  0  0  0  0  0  0  0  0  0  0
   -4.0307  -30.3808  -35.7484 H   0  0  0  0  0  0  0  0  0  0  0  0
   -3.2749  -31.8900  -35.2415 H   0  0  0  0  0  0  0  0  0  0  0  0
   -4.7209  -33.9279  -34.7230 H   0  0  0  0  0  0  0  0  0  0  0  0
   -6.4737  -33.8245  -34.8705 H   0  0  0  0  0  0  0  0  0  0  0  0
   -5.5374  -29.5526  -32.4123 H   0  0  0  0  0  0  0  0  0  0  0  0
   -5.3646  -28.9968  -34.0697 H   0  0  0  0  0  0  0  0  0  0  0  0
   -7.8164  -32.4534  -33.1891 H   0  0  0  0  0  0  0  0  0  0  0  0
   -6.9942  -31.6043  -31.8897 H   0  0  0  0  0  0  0  0  0  0  0  0
   -6.5684  -30.2388  -35.9751 H   0  0  0  0  0  0  0  0  0  0  0  0
   -7.5626  -31.6424  -35.6184 H   0  0  0  0  0  0  0  0  0  0  0  0
   -3.3408  -30.2611  -33.3514 H   0  0  0  0  0  0  0  0  0  0  0  0
   -5.7818  -33.7027  -32.4745 H   0  0  0  0  0  0  0  0  0  0  0  0
   -5.3570  -32.3421  -36.5417 H   0  0  0  0  0  0  0  0  0  0  0  0
  -13.4382  -25.9379  -38.1000 H   0  0  0  0  0  0  0  0  0  0  0  0
  -13.2168  -24.2862  -37.5319 H   0  0  0  0  0  0  0  0  0  0  0  0
  -13.5203  -25.1628  -35.1470 H   0  0  0  0  0  0  0  0  0  0  0  0
  -13.6333  -26.7862  -35.8090 H   0  0  0  0  0  0  0  0  0  0  0  0
  -11.2195  -24.9401  -36.0288 H   0  0  0  0  0  0  0  0  0  0  0  0
  -11.2875  -26.5587  -36.7076 H   0  0  0  0  0  0  0  0  0  0  0  0
  -11.4712  -25.8243  -33.7374 H   0  0  0  0  0  0  0  0  0  0  0  0
  -11.6437  -27.4710  -34.3525 H   0  0  0  0  0  0  0  0  0  0  0  0
   -9.2104  -26.5601  -35.4933 H   0  0  0  0  0  0  0  0  0  0  0  0
   -9.2138  -25.9079  -33.8454 H   0  0  0  0  0  0  0  0  0  0  0  0
  -17.0359  -22.4185  -38.4027 H   0  0  0  0  0  0  0  0  0  0  0  0
  -17.6617  -23.4713  -37.1151 H   0  0  0  0  0  0  0  0  0  0  0  0
  -17.5420  -25.4554  -38.6140 H   0  0  0  0  0  0  0  0  0  0  0  0
  -14.9726  -24.5418  -39.3406 H   0  0  0  0  0  0  0  0  0  0  0  0
   -8.6649  -30.1052  -33.0574 H   0  0  0  0  0  0  0  0  0  0  0  0
   -9.9047  -28.4478  -33.3677 H   0  0  0  0  0  0  0  0  0  0  0  0
  -16.9086  -25.4404  -42.0633 H   0  0  0  0  0  0  0  0  0  0  0  0
  -19.4625  -23.8830  -38.4686 H   0  0  0  0  0  0  0  0  0  0  0  0
  1 14  1  0  0  0  0
  1 21  1  0  0  0  0
  1 24  2  0  0  0  0
  2 20  1  0  0  0  0
  2 25  2  0  0  0  0
  2 27  1  0  0  0  0
  3 22  1  0  0  0  0
  3 23  1  0  0  0  0
  3 26  2  0  0  0  0
  4 10  1  0  0  0  0
  4 11  1  0  0  0  0
  5 10  1  0  0  0  0
  5 12  1  0  0  0  0
  6 11  1  0  0  0  0
  6 12  1  0  0  0  0
  7 10  1  0  0  0  0
  7 13  1  0  0  0  0
  8 11  1  0  0  0  0
  8 13  1  0  0  0  0
  9 12  1  0  0  0  0
  9 13  1  0  0  0  0
 13 22  1  0  0  0  0
 14 15  1  0  0  0  0
 15 16  1  0  0  0  0
 16 17  1  0  0  0  0
 17 18  1  0  0  0  0
 18 23  1  0  0  0  0
 19 20  1  0  0  0  0
 19 28  1  0  0  0  0
 20 21  1  0  0  0  0
  4 29  1  0  0  0  0
  4 30  1  0  0  0  0
  5 31  1  0  0  0  0
  5 32  1  0  0  0  0
  6 33  1  0  0  0  0
  6 34  1  0  0  0  0
  7 35  1  0  0  0  0
  7 36  1  0  0  0  0
  8 37  1  0  0  0  0
  8 38  1  0  0  0  0
  9 39  1  0  0  0  0
  9 40  1  0  0  0  0
 10 41  1  0  0  0  0
 11 42  1  0  0  0  0
 12 43  1  0  0  0  0
 14 44  1  0  0  0  0
 14 45  1  0  0  0  0
 15 46  1  0  0  0  0
 15 47  1  0  0  0  0
 16 48  1  0  0  0  0
 16 49  1  0  0  0  0
 17 50  1  0  0  0  0
 17 51  1  0  0  0  0
 18 52  1  0  0  0  0
 18 53  1  0  0  0  0
 19 54  1  0  0  0  0
 19 55  1  0  0  0  0
 20 56  1  0  0  0  0
 21 57  1  0  0  0  0
 22 58  1  0  0  0  0
 23 59  1  0  0  0  0
 27 60  1  0  0  0  0
 28 61  1  0  0  0  0
M  END
> <Name>
IA_14

> <SourceTag>
IA_14

> <Gold.Version>
5.2

> <Gold.Id.Protein>
6HGV|6HGV_protein|mol2

> <Gold.Goldscore.Fitness>
64.9427

> <Gold.Goldscore.Internal.Vdw>
-5.8557

> <Gold.Goldscore.Internal.Torsion>
-5.5145

> <Gold.Goldscore.External.Vdw>
50.3417

> <Gold.Goldscore.Internal.HBond>
0.0000

> <Gold.Goldscore.External.HBond>
0.3297

> <Gold.Goldscore.Internal.Correction>
-6.7635

> <Gold.Goldscore.Hbonds>
donor molecule, donor type, donor heavy atom, donor atom, acceptor molecule, acceptor atom, score
      L1  H    21    57       P1  1931  0.16

> <Gold.Goldscore.Internal.Vdw.Weighted>
-5.8557

> <Gold.Goldscore.Internal.Torsion.Weighted>
-5.5145

> <Gold.Goldscore.External.Vdw.Weighted>
69.2198

> <Gold.Goldscore.Internal.HBond.Weighted>
0.0000

> <Gold.Goldscore.External.HBond.Weighted>
0.3297

> <Gold.Goldscore.Internal.Correction.Weighted>
-6.7635

> <Gold.Protein.RotatedTorsions>
[ 3781 1176 1175 1172 ] final -113.68 input   60.00 | X-H torsion
[ 3847 1247 1246 1244 ] final   -4.14 input   60.00 | X-H torsion
[ 4507 1931 1930 1928 ] final  170.11 input   60.00 | X-H torsion
[ 3677 1070 1069 1066 ] final -101.24 input   60.00 | X-H torsion
[ 3525  925  924  922 ] final   72.56 input   59.99 | X-H torsion
[ 4531 1957 1955 1953 ] final   78.20 input   60.00 | X-H torsion

> <Gold.Protein.ActiveResidues>
 PHE267  PRO268  MET310  ASP335  TRP336  MET339  TYR343  THR360  PRO361  ILE363 
 PRO371  SER374  ILE375  ASN378  PHE381  TYR383  GLN384  PHE387  LEU408  LEU417 
 MET419  LEU428  TYR466  MET469  ASN472  ASP496  VAL498  LEU499  MET503  HIS524 
 TRP525 

> <Gold.Protein.RotatedAtoms>
   -2.6225  -29.9387  -30.8267 H   0  0  0  0  0  0  0  0  0  0  0  0  # atno 3525 bound_to 925 
  -11.7169  -23.7454  -31.4208 H   0  0  0  0  0  0  0  0  0  0  0  0  # atno 3677 bound_to 1070
   -9.5322  -36.3304  -33.8324 H   0  0  0  0  0  0  0  0  0  0  0  0  # atno 3781 bound_to 1176
  -15.7583  -28.6710  -37.0539 H   0  0  0  0  0  0  0  0  0  0  0  0  # atno 3847 bound_to 1247
  -12.7701  -23.8015  -40.0678 H   0  0  0  0  0  0  0  0  0  0  0  0  # atno 4507 bound_to 1931
   -2.9263  -33.6797  -36.6962 H   0  0  0  0  0  0  0  0  0  0  0  0  # atno 4531 bound_to 1957
   -9.7559  -37.0219  -32.3765 LP  0  0  0  0  0  0  0  0  0  0  0  0  # atno 5205 bound_to 1176
  -10.8262  -37.2847  -33.5815 LP  0  0  0  0  0  0  0  0  0  0  0  0  # atno 5206 bound_to 1176
  -15.4850  -27.2104  -37.7172 LP  0  0  0  0  0  0  0  0  0  0  0  0  # atno 5215 bound_to 1247
  -14.3172  -28.3516  -37.7390 LP  0  0  0  0  0  0  0  0  0  0  0  0  # atno 5216 bound_to 1247
  -12.7250  -24.8027  -38.7859 LP  0  0  0  0  0  0  0  0  0  0  0  0  # atno 5217 bound_to 1931
  -13.7018  -25.1355  -40.0515 LP  0  0  0  0  0  0  0  0  0  0  0  0  # atno 5218 bound_to 1931
  -11.3467  -22.2960  -30.7803 LP  0  0  0  0  0  0  0  0  0  0  0  0  # atno 5224 bound_to 1070
  -12.7920  -22.9869  -30.4632 LP  0  0  0  0  0  0  0  0  0  0  0  0  # atno 5225 bound_to 1070

$$$$
IA_99.cdx|SeH_inactivess_minimized|sdf|178|dock10
  -GOLD-   41821 8513D 1   1.00000     0.00000

 53 52  0  0  0  0  0  0  0  0  1 V2000
   -5.9887  -30.8782  -35.5320 C   0  0  0  0  0  0  0  0  0  0  0  0
  -21.6393  -24.0341  -38.6998 C   0  0  0  0  0  0  0  0  0  0  0  0
   -3.9601  -32.2835  -35.1624 C   0  0  0  0  0  0  0  0  0  0  0  0
  -20.4254  -23.6478  -37.8683 C   0  0  0  0  0  0  0  0  0  0  0  0
  -19.3385  -24.7212  -37.9372 C   0  0  0  0  0  0  0  0  0  0  0  0
  -18.0757  -24.3607  -37.1496 C   0  0  0  0  0  0  0  0  0  0  0  0
  -16.9545  -25.3924  -37.2919 C   0  0  0  0  0  0  0  0  0  0  0  0
  -15.7195  -24.9827  -36.4861 C   0  0  0  0  0  0  0  0  0  0  0  0
  -14.6145  -26.0358  -36.5876 C   0  0  0  0  0  0  0  0  0  0  0  0
  -13.3151  -25.5422  -35.9491 C   0  0  0  0  0  0  0  0  0  0  0  0
  -12.2513  -26.6411  -35.9322 C   0  0  0  0  0  0  0  0  0  0  0  0
  -10.8860  -26.0875  -35.5209 C   0  0  0  0  0  0  0  0  0  0  0  0
   -9.7900  -27.1462  -35.6638 C   0  0  0  0  0  0  0  0  0  0  0  0
  -10.0411  -28.3326  -34.7304 C   0  0  0  0  0  0  0  0  0  0  0  0
   -8.7926  -29.1836  -34.4775 C   0  0  0  0  0  0  0  0  0  0  0  0
   -8.2437  -29.8418  -35.7429 C   0  0  0  0  0  0  0  0  0  0  0  0
   -5.3881  -32.0676  -35.1282 N   0  0  0  0  0  0  0  0  0  0  0  0
   -7.3641  -30.9518  -35.3920 N   0  0  0  0  0  0  0  0  0  0  0  0
   -5.3771  -29.8983  -35.9555 O   0  0  0  0  0  0  0  0  0  0  0  0
  -22.4113  -23.2619  -38.6244 H   0  0  0  0  0  0  0  0  0  0  0  0
  -21.3721  -24.1457  -39.7554 H   0  0  0  0  0  0  0  0  0  0  0  0
  -22.0693  -24.9787  -38.3517 H   0  0  0  0  0  0  0  0  0  0  0  0
   -3.5077  -31.9538  -34.2235 H   0  0  0  0  0  0  0  0  0  0  0  0
   -3.5122  -31.7204  -35.9856 H   0  0  0  0  0  0  0  0  0  0  0  0
   -3.7417  -33.3453  -35.3045 H   0  0  0  0  0  0  0  0  0  0  0  0
  -20.0401  -22.6910  -38.2364 H   0  0  0  0  0  0  0  0  0  0  0  0
  -20.7358  -23.4972  -36.8280 H   0  0  0  0  0  0  0  0  0  0  0  0
  -19.7368  -25.6599  -37.5322 H   0  0  0  0  0  0  0  0  0  0  0  0
  -19.0760  -24.9161  -38.9842 H   0  0  0  0  0  0  0  0  0  0  0  0
  -18.3481  -24.2721  -36.0905 H   0  0  0  0  0  0  0  0  0  0  0  0
  -17.7142  -23.3744  -37.4657 H   0  0  0  0  0  0  0  0  0  0  0  0
  -16.6741  -25.4998  -38.3456 H   0  0  0  0  0  0  0  0  0  0  0  0
  -17.3093  -26.3712  -36.9473 H   0  0  0  0  0  0  0  0  0  0  0  0
  -15.3444  -24.0199  -36.8537 H   0  0  0  0  0  0  0  0  0  0  0  0
  -15.9966  -24.8419  -35.4343 H   0  0  0  0  0  0  0  0  0  0  0  0
  -14.9401  -26.9586  -36.0919 H   0  0  0  0  0  0  0  0  0  0  0  0
  -14.4362  -26.2807  -37.6418 H   0  0  0  0  0  0  0  0  0  0  0  0
  -12.9387  -24.6751  -36.5053 H   0  0  0  0  0  0  0  0  0  0  0  0
  -13.5140  -25.2074  -34.9238 H   0  0  0  0  0  0  0  0  0  0  0  0
  -12.1782  -27.0966  -36.9272 H   0  0  0  0  0  0  0  0  0  0  0  0
  -12.5520  -27.4329  -35.2353 H   0  0  0  0  0  0  0  0  0  0  0  0
  -10.6405  -25.2178  -36.1424 H   0  0  0  0  0  0  0  0  0  0  0  0
  -10.9280  -25.7409  -34.4811 H   0  0  0  0  0  0  0  0  0  0  0  0
   -8.8155  -26.6981  -35.4351 H   0  0  0  0  0  0  0  0  0  0  0  0
   -9.7556  -27.4869  -36.7044 H   0  0  0  0  0  0  0  0  0  0  0  0
  -10.3994  -27.9573  -33.7636 H   0  0  0  0  0  0  0  0  0  0  0  0
  -10.8397  -28.9636  -35.1393 H   0  0  0  0  0  0  0  0  0  0  0  0
   -9.0557  -29.9617  -33.7491 H   0  0  0  0  0  0  0  0  0  0  0  0
   -8.0164  -28.5644  -34.0099 H   0  0  0  0  0  0  0  0  0  0  0  0
   -7.6720  -29.1219  -36.3360 H   0  0  0  0  0  0  0  0  0  0  0  0
   -9.0656  -30.2127  -36.3647 H   0  0  0  0  0  0  0  0  0  0  0  0
   -5.9825  -32.8196  -34.7934 H   0  0  0  0  0  0  0  0  0  0  0  0
   -7.7950  -31.8083  -35.0807 H   0  0  0  0  0  0  0  0  0  0  0  0
  1 17  1  0  0  0  0
  1 18  1  0  0  0  0
  1 19  2  0  0  0  0
  2  4  1  0  0  0  0
  3 17  1  0  0  0  0
  4  5  1  0  0  0  0
  5  6  1  0  0  0  0
  6  7  1  0  0  0  0
  7  8  1  0  0  0  0
  8  9  1  0  0  0  0
  9 10  1  0  0  0  0
 10 11  1  0  0  0  0
 11 12  1  0  0  0  0
 12 13  1  0  0  0  0
 13 14  1  0  0  0  0
 14 15  1  0  0  0  0
 15 16  1  0  0  0  0
 16 18  1  0  0  0  0
  2 20  1  0  0  0  0
  2 21  1  0  0  0  0
  2 22  1  0  0  0  0
  3 23  1  0  0  0  0
  3 24  1  0  0  0  0
  3 25  1  0  0  0  0
  4 26  1  0  0  0  0
  4 27  1  0  0  0  0
  5 28  1  0  0  0  0
  5 29  1  0  0  0  0
  6 30  1  0  0  0  0
  6 31  1  0  0  0  0
  7 32  1  0  0  0  0
  7 33  1  0  0  0  0
  8 34  1  0  0  0  0
  8 35  1  0  0  0  0
  9 36  1  0  0  0  0
  9 37  1  0  0  0  0
 10 38  1  0  0  0  0
 10 39  1  0  0  0  0
 11 40  1  0  0  0  0
 11 41  1  0  0  0  0
 12 42  1  0  0  0  0
 12 43  1  0  0  0  0
 13 44  1  0  0  0  0
 13 45  1  0  0  0  0
 14 46  1  0  0  0  0
 14 47  1  0  0  0  0
 15 48  1  0  0  0  0
 15 49  1  0  0  0  0
 16 50  1  0  0  0  0
 16 51  1  0  0  0  0
 17 52  1  0  0  0  0
 18 53  1  0  0  0  0
M  END
> <Name>
IA_99.cdx

> <SourceTag>
IA_99

> <Gold.Version>
5.2

> <Gold.Id.Protein>
6HGV|6HGV_protein|mol2

> <Gold.Goldscore.Fitness>
59.8431

> <Gold.Goldscore.Internal.Vdw>
-6.2158

> <Gold.Goldscore.Internal.Torsion>
-3.1075

> <Gold.Goldscore.External.Vdw>
44.2840

> <Gold.Goldscore.Internal.HBond>
0.0000

> <Gold.Goldscore.External.HBond>
1.5424

> <Gold.Goldscore.Internal.Correction>
-6.7336

> <Gold.Goldscore.Hbonds>
donor molecule, donor type, donor heavy atom, donor atom, acceptor molecule, acceptor atom, score
      P1  H  1994  4571       L1    19  0.77

> <Gold.Goldscore.Internal.Vdw.Weighted>
-6.2158

> <Gold.Goldscore.Internal.Torsion.Weighted>
-3.1075

> <Gold.Goldscore.External.Vdw.Weighted>
60.8905

> <Gold.Goldscore.Internal.HBond.Weighted>
0.0000

> <Gold.Goldscore.External.HBond.Weighted>
1.5424

> <Gold.Goldscore.Internal.Correction.Weighted>
-6.7336

> <Gold.Protein.RotatedTorsions>
[ 3781 1176 1175 1172 ] final -152.13 input   60.00 | X-H torsion
[ 3847 1247 1246 1244 ] final   57.19 input   60.00 | X-H torsion
[ 4507 1931 1930 1928 ] final   69.73 input   60.00 | X-H torsion
[ 3677 1070 1069 1066 ] final -106.43 input   60.00 | X-H torsion
[ 3525  925  924  922 ] final   -4.85 input   59.99 | X-H torsion
[ 4531 1957 1955 1953 ] final -117.99 input   60.00 | X-H torsion

> <Gold.Protein.ActiveResidues>
 PHE267  PRO268  MET310  ASP335  TRP336  MET339  TYR343  THR360  PRO361  ILE363 
 PRO371  SER374  ILE375  ASN378  PHE381  TYR383  GLN384  PHE387  LEU408  LEU417 
 MET419  LEU428  TYR466  MET469  ASN472  ASP496  VAL498  LEU499  MET503  HIS524 
 TRP525 

> <Gold.Protein.RotatedAtoms>
   -3.6387  -29.5338  -30.4093 H   0  0  0  0  0  0  0  0  0  0  0  0  # atno 3525 bound_to 925 
  -11.6430  -23.7066  -31.4350 H   0  0  0  0  0  0  0  0  0  0  0  0  # atno 3677 bound_to 1070
   -9.2599  -36.3557  -33.2799 H   0  0  0  0  0  0  0  0  0  0  0  0  # atno 3781 bound_to 1176
  -14.8746  -28.9374  -37.2988 H   0  0  0  0  0  0  0  0  0  0  0  0  # atno 3847 bound_to 1247
  -12.5658  -24.5312  -38.8454 H   0  0  0  0  0  0  0  0  0  0  0  0  # atno 4507 bound_to 1931
   -1.3119  -32.8163  -36.9882 H   0  0  0  0  0  0  0  0  0  0  0  0  # atno 4531 bound_to 1957
  -10.2822  -37.3351  -32.4777 LP  0  0  0  0  0  0  0  0  0  0  0  0  # atno 5205 bound_to 1176
  -10.5741  -36.9460  -34.0366 LP  0  0  0  0  0  0  0  0  0  0  0  0  # atno 5206 bound_to 1176
  -16.0620  -27.8256  -37.2553 LP  0  0  0  0  0  0  0  0  0  0  0  0  # atno 5215 bound_to 1247
  -14.6301  -27.4681  -37.9541 LP  0  0  0  0  0  0  0  0  0  0  0  0  # atno 5216 bound_to 1247
  -13.6562  -25.2985  -39.7784 LP  0  0  0  0  0  0  0  0  0  0  0  0  # atno 5217 bound_to 1931
  -12.9763  -23.9047  -40.2901 LP  0  0  0  0  0  0  0  0  0  0  0  0  # atno 5218 bound_to 1931
  -11.4054  -22.2591  -30.7305 LP  0  0  0  0  0  0  0  0  0  0  0  0  # atno 5224 bound_to 1070
  -12.8079  -23.0629  -30.4987 LP  0  0  0  0  0  0  0  0  0  0  0  0  # atno 5225 bound_to 1070

$$$$
IA_39|SeH_inactivess_minimized|sdf|125|dock3
  -GOLD-   4172121273D 1   1.00000     0.00000

 66 70  0  0  0  0  0  0  0  0  1 V2000
  -10.3681  -24.9890  -34.8998 C   0  0  0  0  0  0  0  0  0  0  0  0
   -9.9270  -26.0695  -34.1358 C   0  0  0  0  0  0  0  0  0  0  0  0
  -11.5947  -25.0565  -35.5605 C   0  0  0  0  0  0  0  0  0  0  0  0
  -10.7128  -27.2175  -34.0326 C   0  0  0  0  0  0  0  0  0  0  0  0
  -12.3804  -26.2043  -35.4572 C   0  0  0  0  0  0  0  0  0  0  0  0
  -11.9394  -27.2848  -34.6931 C   0  0  0  0  0  0  0  0  0  0  0  0
  -14.2309  -25.2519  -36.8891 C   0  0  0  0  0  0  0  0  0  0  0  0
  -18.8444  -23.3892  -38.6104 C   0  0  0  0  0  0  0  0  0  0  0  0
  -17.9179  -24.4794  -40.6702 C   0  0  0  0  0  0  0  0  0  0  0  0
  -16.8363  -22.4118  -39.7516 C   0  0  0  0  0  0  0  0  0  0  0  0
  -17.6731  -25.5999  -38.4403 C   0  0  0  0  0  0  0  0  0  0  0  0
  -16.5904  -23.5300  -37.5208 C   0  0  0  0  0  0  0  0  0  0  0  0
  -15.6621  -24.6213  -39.5838 C   0  0  0  0  0  0  0  0  0  0  0  0
  -10.5332  -33.8124  -35.1644 C   0  0  0  0  0  0  0  0  0  0  0  0
  -11.7794  -34.7328  -33.3310 C   0  0  0  0  0  0  0  0  0  0  0  0
  -10.2434  -32.5528  -34.3446 C   0  0  0  0  0  0  0  0  0  0  0  0
  -11.4973  -33.4785  -32.5002 C   0  0  0  0  0  0  0  0  0  0  0  0
  -18.5975  -24.7344  -39.3139 C   0  0  0  0  0  0  0  0  0  0  0  0
  -17.5104  -22.6561  -38.3907 C   0  0  0  0  0  0  0  0  0  0  0  0
  -16.5789  -23.7518  -40.4615 C   0  0  0  0  0  0  0  0  0  0  0  0
  -16.3226  -24.8847  -38.2132 C   0  0  0  0  0  0  0  0  0  0  0  0
  -12.0368  -30.0117  -32.9117 C   0  0  0  0  0  0  0  0  0  0  0  0
  -11.0347  -31.1124  -32.5789 C   0  0  0  0  0  0  0  0  0  0  0  0
  -11.9913  -29.6429  -34.3884 C   0  0  0  0  0  0  0  0  0  0  0  0
  -10.7176  -34.9859  -34.3075 N   0  0  0  0  0  0  0  0  0  0  0  0
  -11.3144  -32.3092  -33.3696 N   0  0  0  0  0  0  0  0  0  0  0  0
  -13.6227  -26.2566  -36.1311 N   0  0  0  0  0  0  0  0  0  0  0  0
  -15.4568  -25.6999  -37.3896 N   0  0  0  0  0  0  0  0  0  0  0  0
  -13.7849  -24.1278  -37.1064 O   0  0  0  0  0  0  0  0  0  0  0  0
  -12.6918  -28.4157  -34.5790 O   0  0  0  0  0  0  0  0  0  0  0  0
   -9.7558  -24.0957  -34.9808 H   0  0  0  0  0  0  0  0  0  0  0  0
   -8.9716  -26.0176  -33.6220 H   0  0  0  0  0  0  0  0  0  0  0  0
  -11.9277  -24.2080  -36.1529 H   0  0  0  0  0  0  0  0  0  0  0  0
  -10.3629  -28.0557  -33.4363 H   0  0  0  0  0  0  0  0  0  0  0  0
  -19.5177  -22.7691  -39.2148 H   0  0  0  0  0  0  0  0  0  0  0  0
  -19.3433  -23.5558  -37.6477 H   0  0  0  0  0  0  0  0  0  0  0  0
  -17.7501  -25.4307  -41.1899 H   0  0  0  0  0  0  0  0  0  0  0  0
  -18.5751  -23.8780  -41.3106 H   0  0  0  0  0  0  0  0  0  0  0  0
  -17.4737  -21.7740  -40.3762 H   0  0  0  0  0  0  0  0  0  0  0  0
  -15.8903  -21.8750  -39.6098 H   0  0  0  0  0  0  0  0  0  0  0  0
  -18.1595  -25.8090  -37.4786 H   0  0  0  0  0  0  0  0  0  0  0  0
  -17.5107  -26.5738  -38.9208 H   0  0  0  0  0  0  0  0  0  0  0  0
  -15.6440  -23.0049  -37.3354 H   0  0  0  0  0  0  0  0  0  0  0  0
  -17.0502  -23.6907  -36.5367 H   0  0  0  0  0  0  0  0  0  0  0  0
  -15.4507  -25.5710  -40.0923 H   0  0  0  0  0  0  0  0  0  0  0  0
  -14.6933  -24.1219  -39.4501 H   0  0  0  0  0  0  0  0  0  0  0  0
  -11.4220  -33.6626  -35.7906 H   0  0  0  0  0  0  0  0  0  0  0  0
   -9.6934  -34.0005  -35.8423 H   0  0  0  0  0  0  0  0  0  0  0  0
  -11.8572  -35.5972  -32.6624 H   0  0  0  0  0  0  0  0  0  0  0  0
  -12.7446  -34.6379  -33.8447 H   0  0  0  0  0  0  0  0  0  0  0  0
   -9.2732  -32.6560  -33.8407 H   0  0  0  0  0  0  0  0  0  0  0  0
  -10.1674  -31.7023  -35.0321 H   0  0  0  0  0  0  0  0  0  0  0  0
  -12.3462  -33.3115  -31.8269 H   0  0  0  0  0  0  0  0  0  0  0  0
  -10.6094  -33.6428  -31.8753 H   0  0  0  0  0  0  0  0  0  0  0  0
  -19.5508  -25.2517  -39.4691 H   0  0  0  0  0  0  0  0  0  0  0  0
  -17.6924  -21.6983  -37.8906 H   0  0  0  0  0  0  0  0  0  0  0  0
  -16.1008  -23.5713  -41.4307 H   0  0  0  0  0  0  0  0  0  0  0  0
  -13.0550  -30.3277  -32.6497 H   0  0  0  0  0  0  0  0  0  0  0  0
  -11.8381  -29.1152  -32.3101 H   0  0  0  0  0  0  0  0  0  0  0  0
  -11.0851  -31.3614  -31.5131 H   0  0  0  0  0  0  0  0  0  0  0  0
  -10.0162  -30.7722  -32.7944 H   0  0  0  0  0  0  0  0  0  0  0  0
  -12.4697  -30.4153  -34.9989 H   0  0  0  0  0  0  0  0  0  0  0  0
  -10.9585  -29.5102  -34.7260 H   0  0  0  0  0  0  0  0  0  0  0  0
  -10.9666  -35.7911  -34.8809 H   0  0  0  0  0  0  0  0  0  0  0  0
  -14.1359  -27.1314  -36.0551 H   0  0  0  0  0  0  0  0  0  0  0  0
  -15.7539  -26.6432  -37.1641 H   0  0  0  0  0  0  0  0  0  0  0  0
  1  2  1  0  0  0  0
  1  3  2  0  0  0  0
  2  4  2  0  0  0  0
  3  5  1  0  0  0  0
  4  6  1  0  0  0  0
  5  6  2  0  0  0  0
  5 27  1  0  0  0  0
  6 30  1  0  0  0  0
  7 27  1  0  0  0  0
  7 28  1  0  0  0  0
  7 29  2  0  0  0  0
  8 18  1  0  0  0  0
  8 19  1  0  0  0  0
  9 18  1  0  0  0  0
  9 20  1  0  0  0  0
 10 19  1  0  0  0  0
 10 20  1  0  0  0  0
 11 18  1  0  0  0  0
 11 21  1  0  0  0  0
 12 19  1  0  0  0  0
 12 21  1  0  0  0  0
 13 20  1  0  0  0  0
 13 21  1  0  0  0  0
 14 16  1  0  0  0  0
 14 25  1  0  0  0  0
 15 17  1  0  0  0  0
 15 25  1  0  0  0  0
 16 26  1  0  0  0  0
 17 26  1  0  0  0  0
 21 28  1  0  0  0  0
 22 23  1  0  0  0  0
 22 24  1  0  0  0  0
 23 26  1  0  0  0  0
 24 30  1  0  0  0  0
  1 31  1  0  0  0  0
  2 32  1  0  0  0  0
  3 33  1  0  0  0  0
  4 34  1  0  0  0  0
  8 35  1  0  0  0  0
  8 36  1  0  0  0  0
  9 37  1  0  0  0  0
  9 38  1  0  0  0  0
 10 39  1  0  0  0  0
 10 40  1  0  0  0  0
 11 41  1  0  0  0  0
 11 42  1  0  0  0  0
 12 43  1  0  0  0  0
 12 44  1  0  0  0  0
 13 45  1  0  0  0  0
 13 46  1  0  0  0  0
 14 47  1  0  0  0  0
 14 48  1  0  0  0  0
 15 49  1  0  0  0  0
 15 50  1  0  0  0  0
 16 51  1  0  0  0  0
 16 52  1  0  0  0  0
 17 53  1  0  0  0  0
 17 54  1  0  0  0  0
 18 55  1  0  0  0  0
 19 56  1  0  0  0  0
 20 57  1  0  0  0  0
 22 58  1  0  0  0  0
 22 59  1  0  0  0  0
 23 60  1  0  0  0  0
 23 61  1  0  0  0  0
 24 62  1  0  0  0  0
 24 63  1  0  0  0  0
 25 64  1  0  0  0  0
 27 65  1  0  0  0  0
 28 66  1  0  0  0  0
M  END
> <Name>
IA_39

> <SourceTag>
IA_39

> <Gold.Version>
5.2

> <Gold.Id.Protein>
6HGV|6HGV_protein|mol2

> <Gold.Goldscore.Fitness>
53.2077

> <Gold.Goldscore.Internal.Vdw>
-19.8258

> <Gold.Goldscore.Internal.Torsion>
-5.4735

> <Gold.Goldscore.External.Vdw>
46.4171

> <Gold.Goldscore.Internal.HBond>
0.0000

> <Gold.Goldscore.External.HBond>
0.2752

> <Gold.Goldscore.Internal.Correction>
-14.4082

> <Gold.Goldscore.Hbonds>
donor molecule, donor type, donor heavy atom, donor atom, acceptor molecule, acceptor atom, score
      P1  H  1931  4507       L1    29  0.01
      L1  H    28    66       P1  1247  0.13

> <Gold.Goldscore.Internal.Vdw.Weighted>
-19.8258

> <Gold.Goldscore.Internal.Torsion.Weighted>
-5.4735

> <Gold.Goldscore.External.Vdw.Weighted>
63.8235

> <Gold.Goldscore.Internal.HBond.Weighted>
0.0000

> <Gold.Goldscore.External.HBond.Weighted>
0.2752

> <Gold.Goldscore.Internal.Correction.Weighted>
-14.4082

> <Gold.Protein.RotatedTorsions>
[ 3781 1176 1175 1172 ] final  143.09 input   60.00 | X-H torsion
[ 3847 1247 1246 1244 ] final   44.86 input   60.00 | X-H torsion
[ 4507 1931 1930 1928 ] final   71.49 input   60.00 | X-H torsion
[ 3677 1070 1069 1066 ] final -100.89 input   60.00 | X-H torsion
[ 3525  925  924  922 ] final   53.19 input   59.99 | X-H torsion
[ 4531 1957 1955 1953 ] final   87.14 input   60.00 | X-H torsion

> <Gold.Protein.ActiveResidues>
 PHE267  PRO268  MET310  ASP335  TRP336  MET339  TYR343  THR360  PRO361  ILE363 
 PRO371  SER374  ILE375  ASN378  PHE381  TYR383  GLN384  PHE387  LEU408  LEU417 
 MET419  LEU428  TYR466  MET469  ASN472  ASP496  VAL498  LEU499  MET503  HIS524 
 TRP525 

> <Gold.Protein.RotatedAtoms>
   -2.9068  -29.8107  -30.8707 H   0  0  0  0  0  0  0  0  0  0  0  0  # atno 3525 bound_to 925 
  -11.7220  -23.7479  -31.4197 H   0  0  0  0  0  0  0  0  0  0  0  0  # atno 3677 bound_to 1070
   -9.5540  -36.8578  -32.4630 H   0  0  0  0  0  0  0  0  0  0  0  0  # atno 3781 bound_to 1176
  -15.0571  -28.9614  -37.2180 H   0  0  0  0  0  0  0  0  0  0  0  0  # atno 3847 bound_to 1247
  -12.5541  -24.5067  -38.8548 H   0  0  0  0  0  0  0  0  0  0  0  0  # atno 4507 bound_to 1931
   -2.8339  -33.7909  -36.7157 H   0  0  0  0  0  0  0  0  0  0  0  0  # atno 4531 bound_to 1957
  -10.8303  -37.3835  -33.3249 LP  0  0  0  0  0  0  0  0  0  0  0  0  # atno 5205 bound_to 1176
   -9.7298  -36.3919  -34.0122 LP  0  0  0  0  0  0  0  0  0  0  0  0  # atno 5206 bound_to 1176
  -16.0121  -27.6496  -37.3423 LP  0  0  0  0  0  0  0  0  0  0  0  0  # atno 5215 bound_to 1247
  -14.4961  -27.6199  -37.9486 LP  0  0  0  0  0  0  0  0  0  0  0  0  # atno 5216 bound_to 1247
  -13.6486  -25.3092  -39.7526 LP  0  0  0  0  0  0  0  0  0  0  0  0  # atno 5217 bound_to 1931
  -12.9957  -23.9187  -40.3064 LP  0  0  0  0  0  0  0  0  0  0  0  0  # atno 5218 bound_to 1931
  -11.3430  -22.2987  -30.7837 LP  0  0  0  0  0  0  0  0  0  0  0  0  # atno 5224 bound_to 1070
  -12.7907  -22.9817  -30.4609 LP  0  0  0  0  0  0  0  0  0  0  0  0  # atno 5225 bound_to 1070

$$$$
IA_143.cdx|SeH_inactivess_minimized|sdf|46|dock9
  -GOLD-   4172119373D 1   1.00000     0.00000

 23 23  0  0  0  0  0  0  0  0  1 V2000
   -9.3526  -26.2884  -34.6547 C   0  0  0  0  0  0  0  0  0  0  0  0
  -10.1715  -25.3855  -33.9767 C   0  0  0  0  0  0  0  0  0  0  0  0
   -9.8720  -27.0521  -35.7000 C   0  0  0  0  0  0  0  0  0  0  0  0
  -11.5099  -25.2464  -34.3439 C   0  0  0  0  0  0  0  0  0  0  0  0
  -11.2104  -26.9130  -36.0673 C   0  0  0  0  0  0  0  0  0  0  0  0
  -12.0294  -26.0101  -35.3892 C   0  0  0  0  0  0  0  0  0  0  0  0
  -13.7004  -24.7921  -36.8388 C   0  0  0  0  0  0  0  0  0  0  0  0
  -15.5961  -23.6042  -37.9125 C   0  0  0  0  0  0  0  0  0  0  0  0
  -13.4743  -25.8606  -35.7860 C   0  0  0  0  0  0  0  0  0  0  0  0
  -16.9782  -23.5634  -37.8448 N   0  0  0  0  0  0  0  0  0  0  0  0
  -15.0618  -24.5352  -37.0166 N   0  0  0  0  0  0  0  0  0  0  0  0
  -12.7898  -24.2346  -37.4456 O   0  0  0  0  0  0  0  0  0  0  0  0
  -14.9425  -22.8958  -38.6758 O   0  0  0  0  0  0  0  0  0  0  0  0
   -8.3100  -26.3956  -34.3695 H   0  0  0  0  0  0  0  0  0  0  0  0
   -9.7670  -24.7900  -33.1635 H   0  0  0  0  0  0  0  0  0  0  0  0
   -9.2343  -27.7542  -36.2289 H   0  0  0  0  0  0  0  0  0  0  0  0
  -12.1408  -24.5406  -33.8098 H   0  0  0  0  0  0  0  0  0  0  0  0
  -11.6064  -27.5123  -36.8828 H   0  0  0  0  0  0  0  0  0  0  0  0
  -14.0777  -25.6159  -34.9027 H   0  0  0  0  0  0  0  0  0  0  0  0
  -13.8521  -26.8177  -36.1672 H   0  0  0  0  0  0  0  0  0  0  0  0
  -17.4880  -22.9258  -38.4470 H   0  0  0  0  0  0  0  0  0  0  0  0
  -17.4899  -24.1600  -37.2035 H   0  0  0  0  0  0  0  0  0  0  0  0
  -15.7249  -25.0627  -36.4549 H   0  0  0  0  0  0  0  0  0  0  0  0
  1  2  2  0  0  0  0
  1  3  1  0  0  0  0
  2  4  1  0  0  0  0
  3  5  2  0  0  0  0
  4  6  2  0  0  0  0
  5  6  1  0  0  0  0
  6  9  1  0  0  0  0
  7  9  1  0  0  0  0
  7 11  1  0  0  0  0
  7 12  2  0  0  0  0
  8 10  1  0  0  0  0
  8 11  1  0  0  0  0
  8 13  2  0  0  0  0
  1 14  1  0  0  0  0
  2 15  1  0  0  0  0
  3 16  1  0  0  0  0
  4 17  1  0  0  0  0
  5 18  1  0  0  0  0
  9 19  1  0  0  0  0
  9 20  1  0  0  0  0
 10 21  1  0  0  0  0
 10 22  1  0  0  0  0
 11 23  1  0  0  0  0
M  END
> <Name>
IA_143.cdx

> <SourceTag>
IA_143

> <Gold.Version>
5.2

> <Gold.Id.Protein>
6HGV|6HGV_protein|mol2

> <Gold.Goldscore.Fitness>
42.5677

> <Gold.Goldscore.Internal.Vdw>
-3.2852

> <Gold.Goldscore.Internal.Torsion>
-1.0348

> <Gold.Goldscore.External.Vdw>
31.2822

> <Gold.Goldscore.Internal.HBond>
0.0000

> <Gold.Goldscore.External.HBond>
0.0000

> <Gold.Goldscore.Internal.Correction>
-3.8747

> <Gold.Goldscore.Internal.Vdw.Weighted>
-3.2852

> <Gold.Goldscore.Internal.Torsion.Weighted>
-1.0348

> <Gold.Goldscore.External.Vdw.Weighted>
43.0131

> <Gold.Goldscore.Internal.HBond.Weighted>
0.0000

> <Gold.Goldscore.External.HBond.Weighted>
0.0000

> <Gold.Goldscore.Internal.Correction.Weighted>
-3.8747

> <Gold.Protein.RotatedTorsions>
[ 3781 1176 1175 1172 ] final  103.11 input   60.00 | X-H torsion
[ 3847 1247 1246 1244 ] final  -90.67 input   60.00 | X-H torsion
[ 4507 1931 1930 1928 ] final  -52.88 input   60.00 | X-H torsion
[ 3677 1070 1069 1066 ] final -126.32 input   60.00 | X-H torsion
[ 3525  925  924  922 ] final  122.17 input   59.99 | X-H torsion
[ 4531 1957 1955 1953 ] final   62.47 input   60.00 | X-H torsion

> <Gold.Protein.ActiveResidues>
 PHE267  PRO268  MET310  ASP335  TRP336  MET339  TYR343  THR360  PRO361  ILE363 
 PRO371  SER374  ILE375  ASN378  PHE381  TYR383  GLN384  PHE387  LEU408  LEU417 
 MET419  LEU428  TYR466  MET469  ASN472  ASP496  VAL498  LEU499  MET503  HIS524 
 TRP525 

> <Gold.Protein.RotatedAtoms>
   -2.1097  -30.2106  -30.2975 H   0  0  0  0  0  0  0  0  0  0  0  0  # atno 3525 bound_to 925 
  -11.3878  -23.5085  -31.4476 H   0  0  0  0  0  0  0  0  0  0  0  0  # atno 3677 bound_to 1070
  -10.0721  -37.2281  -32.3973 H   0  0  0  0  0  0  0  0  0  0  0  0  # atno 3781 bound_to 1176
  -15.8914  -27.4623  -37.4640 H   0  0  0  0  0  0  0  0  0  0  0  0  # atno 3847 bound_to 1247
  -13.6604  -25.2776  -39.8162 H   0  0  0  0  0  0  0  0  0  0  0  0  # atno 4507 bound_to 1931
   -3.0438  -33.4534  -36.6700 H   0  0  0  0  0  0  0  0  0  0  0  0  # atno 4531 bound_to 1957
  -10.7109  -37.0930  -33.8878 LP  0  0  0  0  0  0  0  0  0  0  0  0  # atno 5205 bound_to 1176
   -9.3275  -36.3095  -33.5153 LP  0  0  0  0  0  0  0  0  0  0  0  0  # atno 5206 bound_to 1176
  -14.3735  -27.8402  -37.9125 LP  0  0  0  0  0  0  0  0  0  0  0  0  # atno 5215 bound_to 1247
  -15.2945  -28.9390  -37.1307 LP  0  0  0  0  0  0  0  0  0  0  0  0  # atno 5216 bound_to 1247
  -12.9477  -23.8852  -40.2647 LP  0  0  0  0  0  0  0  0  0  0  0  0  # atno 5217 bound_to 1931
  -12.5825  -24.5664  -38.8262 LP  0  0  0  0  0  0  0  0  0  0  0  0  # atno 5218 bound_to 1931
  -11.6670  -22.1768  -30.5550 LP  0  0  0  0  0  0  0  0  0  0  0  0  # atno 5224 bound_to 1070
  -12.8032  -23.3448  -30.6615 LP  0  0  0  0  0  0  0  0  0  0  0  0  # atno 5225 bound_to 1070

$$$$
IA_203.cdx|SeH_inactivess_minimized|sdf|100|dock3
  -GOLD-   4172120443D 1   1.00000     0.00000

 68 67  0  0  0  0  0  0  0  0  1 V2000
   -7.9350  -28.6307  -34.6716 C   0  0  0  0  0  0  0  0  0  0  0  0
  -21.9526  -23.0920  -39.4558 C   0  0  0  0  0  0  0  0  0  0  0  0
   -3.9117  -32.6296  -33.0897 C   0  0  0  0  0  0  0  0  0  0  0  0
   -5.8846  -33.7533  -34.0968 C   0  0  0  0  0  0  0  0  0  0  0  0
   -4.3458  -32.4218  -35.5275 C   0  0  0  0  0  0  0  0  0  0  0  0
   -5.0372  -29.9457  -33.4605 C   0  0  0  0  0  0  0  0  0  0  0  0
   -6.9385  -31.3789  -32.7287 C   0  0  0  0  0  0  0  0  0  0  0  0
  -21.1507  -23.7961  -38.3729 C   0  0  0  0  0  0  0  0  0  0  0  0
  -19.6502  -23.7467  -38.6648 C   0  0  0  0  0  0  0  0  0  0  0  0
  -18.8542  -24.5054  -37.6007 C   0  0  0  0  0  0  0  0  0  0  0  0
  -17.3422  -24.4882  -37.8440 C   0  0  0  0  0  0  0  0  0  0  0  0
  -16.5458  -25.2474  -36.7793 C   0  0  0  0  0  0  0  0  0  0  0  0
  -15.0408  -25.1513  -37.0445 C   0  0  0  0  0  0  0  0  0  0  0  0
  -14.1869  -25.7992  -35.9506 C   0  0  0  0  0  0  0  0  0  0  0  0
  -12.6831  -25.7093  -36.2195 C   0  0  0  0  0  0  0  0  0  0  0  0
  -11.8745  -26.1928  -35.0126 C   0  0  0  0  0  0  0  0  0  0  0  0
  -10.3704  -26.1464  -35.2988 C   0  0  0  0  0  0  0  0  0  0  0  0
   -9.5276  -26.7719  -34.1859 C   0  0  0  0  0  0  0  0  0  0  0  0
   -6.7222  -30.7507  -35.1596 C   0  0  0  0  0  0  0  0  0  0  0  0
   -5.0357  -32.4591  -34.1418 C   0  0  0  0  0  0  0  0  0  0  0  0
   -5.9241  -31.1473  -33.8784 C   0  0  0  0  0  0  0  0  0  0  0  0
   -9.2239  -28.1723  -34.4540 N   0  0  0  0  0  0  0  0  0  0  0  0
   -7.9311  -30.0039  -34.9024 N   0  0  0  0  0  0  0  0  0  0  0  0
   -6.9263  -27.9263  -34.6628 O   0  0  0  0  0  0  0  0  0  0  0  0
  -21.7248  -23.5220  -40.4363 H   0  0  0  0  0  0  0  0  0  0  0  0
  -23.0278  -23.1983  -39.2797 H   0  0  0  0  0  0  0  0  0  0  0  0
  -21.7133  -22.0243  -39.4892 H   0  0  0  0  0  0  0  0  0  0  0  0
   -3.4650  -33.6272  -33.1204 H   0  0  0  0  0  0  0  0  0  0  0  0
   -4.3030  -32.4905  -32.0743 H   0  0  0  0  0  0  0  0  0  0  0  0
   -3.1148  -31.8908  -33.2191 H   0  0  0  0  0  0  0  0  0  0  0  0
   -6.7998  -33.6641  -34.6892 H   0  0  0  0  0  0  0  0  0  0  0  0
   -5.3250  -34.6223  -34.4566 H   0  0  0  0  0  0  0  0  0  0  0  0
   -6.1919  -33.9841  -33.0695 H   0  0  0  0  0  0  0  0  0  0  0  0
   -3.8458  -31.4671  -35.7137 H   0  0  0  0  0  0  0  0  0  0  0  0
   -5.0785  -32.5565  -36.3329 H   0  0  0  0  0  0  0  0  0  0  0  0
   -3.6085  -33.2230  -35.6377 H   0  0  0  0  0  0  0  0  0  0  0  0
   -4.4288  -30.1708  -32.5803 H   0  0  0  0  0  0  0  0  0  0  0  0
   -5.6443  -29.0711  -33.1986 H   0  0  0  0  0  0  0  0  0  0  0  0
   -4.3678  -29.6361  -34.2695 H   0  0  0  0  0  0  0  0  0  0  0  0
   -7.6788  -32.1425  -32.9943 H   0  0  0  0  0  0  0  0  0  0  0  0
   -7.5077  -30.4731  -32.4985 H   0  0  0  0  0  0  0  0  0  0  0  0
   -6.4461  -31.7174  -31.8125 H   0  0  0  0  0  0  0  0  0  0  0  0
  -21.4827  -24.8383  -38.3008 H   0  0  0  0  0  0  0  0  0  0  0  0
  -21.3573  -23.3219  -37.4063 H   0  0  0  0  0  0  0  0  0  0  0  0
  -19.3275  -22.7002  -38.7012 H   0  0  0  0  0  0  0  0  0  0  0  0
  -19.4537  -24.1826  -39.6516 H   0  0  0  0  0  0  0  0  0  0  0  0
  -19.0718  -24.0904  -36.6090 H   0  0  0  0  0  0  0  0  0  0  0  0
  -19.1850  -25.5513  -37.5844 H   0  0  0  0  0  0  0  0  0  0  0  0
  -16.9910  -23.4507  -37.9005 H   0  0  0  0  0  0  0  0  0  0  0  0
  -17.1493  -24.9406  -38.8249 H   0  0  0  0  0  0  0  0  0  0  0  0
  -16.7612  -24.8381  -35.7863 H   0  0  0  0  0  0  0  0  0  0  0  0
  -16.8603  -26.2967  -36.7777 H   0  0  0  0  0  0  0  0  0  0  0  0
  -14.8051  -25.6087  -38.0131 H   0  0  0  0  0  0  0  0  0  0  0  0
  -14.7573  -24.0940  -37.1174 H   0  0  0  0  0  0  0  0  0  0  0  0
  -14.4796  -26.8492  -35.8293 H   0  0  0  0  0  0  0  0  0  0  0  0
  -14.4113  -25.2975  -35.0011 H   0  0  0  0  0  0  0  0  0  0  0  0
  -12.4126  -24.6721  -36.4510 H   0  0  0  0  0  0  0  0  0  0  0  0
  -12.4202  -26.3173  -37.0921 H   0  0  0  0  0  0  0  0  0  0  0  0
  -12.1008  -25.5636  -34.1432 H   0  0  0  0  0  0  0  0  0  0  0  0
  -12.1784  -27.2156  -34.7609 H   0  0  0  0  0  0  0  0  0  0  0  0
  -10.1593  -26.6493  -36.2509 H   0  0  0  0  0  0  0  0  0  0  0  0
  -10.0594  -25.1012  -35.4203 H   0  0  0  0  0  0  0  0  0  0  0  0
   -8.5885  -26.2158  -34.0901 H   0  0  0  0  0  0  0  0  0  0  0  0
  -10.0537  -26.6935  -33.2285 H   0  0  0  0  0  0  0  0  0  0  0  0
   -7.0356  -31.6366  -35.7198 H   0  0  0  0  0  0  0  0  0  0  0  0
   -6.1215  -30.1255  -35.8256 H   0  0  0  0  0  0  0  0  0  0  0  0
   -9.9843  -28.8352  -34.4823 H   0  0  0  0  0  0  0  0  0  0  0  0
   -8.8081  -30.5119  -34.8446 H   0  0  0  0  0  0  0  0  0  0  0  0
  1 22  1  0  0  0  0
  1 23  1  0  0  0  0
  1 24  2  0  0  0  0
  2  8  1  0  0  0  0
  3 20  1  0  0  0  0
  4 20  1  0  0  0  0
  5 20  1  0  0  0  0
  6 21  1  0  0  0  0
  7 21  1  0  0  0  0
  8  9  1  0  0  0  0
  9 10  1  0  0  0  0
 10 11  1  0  0  0  0
 11 12  1  0  0  0  0
 12 13  1  0  0  0  0
 13 14  1  0  0  0  0
 14 15  1  0  0  0  0
 15 16  1  0  0  0  0
 16 17  1  0  0  0  0
 17 18  1  0  0  0  0
 18 22  1  0  0  0  0
 19 21  1  0  0  0  0
 19 23  1  0  0  0  0
 20 21  1  0  0  0  0
  2 25  1  0  0  0  0
  2 26  1  0  0  0  0
  2 27  1  0  0  0  0
  3 28  1  0  0  0  0
  3 29  1  0  0  0  0
  3 30  1  0  0  0  0
  4 31  1  0  0  0  0
  4 32  1  0  0  0  0
  4 33  1  0  0  0  0
  5 34  1  0  0  0  0
  5 35  1  0  0  0  0
  5 36  1  0  0  0  0
  6 37  1  0  0  0  0
  6 38  1  0  0  0  0
  6 39  1  0  0  0  0
  7 40  1  0  0  0  0
  7 41  1  0  0  0  0
  7 42  1  0  0  0  0
  8 43  1  0  0  0  0
  8 44  1  0  0  0  0
  9 45  1  0  0  0  0
  9 46  1  0  0  0  0
 10 47  1  0  0  0  0
 10 48  1  0  0  0  0
 11 49  1  0  0  0  0
 11 50  1  0  0  0  0
 12 51  1  0  0  0  0
 12 52  1  0  0  0  0
 13 53  1  0  0  0  0
 13 54  1  0  0  0  0
 14 55  1  0  0  0  0
 14 56  1  0  0  0  0
 15 57  1  0  0  0  0
 15 58  1  0  0  0  0
 16 59  1  0  0  0  0
 16 60  1  0  0  0  0
 17 61  1  0  0  0  0
 17 62  1  0  0  0  0
 18 63  1  0  0  0  0
 18 64  1  0  0  0  0
 19 65  1  0  0  0  0
 19 66  1  0  0  0  0
 22 67  1  0  0  0  0
 23 68  1  0  0  0  0
M  END
> <Name>
IA_203.cdx

> <SourceTag>
IA_203

> <Gold.Version>
5.2

> <Gold.Id.Protein>
6HGV|6HGV_protein|mol2

> <Gold.Goldscore.Fitness>
74.7797

> <Gold.Goldscore.Internal.Vdw>
-10.2524

> <Gold.Goldscore.Internal.Torsion>
-6.0047

> <Gold.Goldscore.External.Vdw>
56.4405

> <Gold.Goldscore.Internal.HBond>
0.0000

> <Gold.Goldscore.External.HBond>
0.0000

> <Gold.Goldscore.Internal.Correction>
-13.4310

> <Gold.Goldscore.Internal.Vdw.Weighted>
-10.2524

> <Gold.Goldscore.Internal.Torsion.Weighted>
-6.0047

> <Gold.Goldscore.External.Vdw.Weighted>
77.6057

> <Gold.Goldscore.Internal.HBond.Weighted>
0.0000

> <Gold.Goldscore.External.HBond.Weighted>
0.0000

> <Gold.Goldscore.Internal.Correction.Weighted>
-13.4310

> <Gold.Protein.RotatedTorsions>
[ 3781 1176 1175 1172 ] final -163.20 input   60.00 | X-H torsion
[ 3847 1247 1246 1244 ] final   55.00 input   60.00 | X-H torsion
[ 4507 1931 1930 1928 ] final   81.69 input   60.00 | X-H torsion
[ 3677 1070 1069 1066 ] final  -91.94 input   60.00 | X-H torsion
[ 3525  925  924  922 ] final   -7.08 input   59.99 | X-H torsion
[ 4531 1957 1955 1953 ] final -109.04 input   60.00 | X-H torsion

> <Gold.Protein.ActiveResidues>
 PHE267  PRO268  MET310  ASP335  TRP336  MET339  TYR343  THR360  PRO361  ILE363 
 PRO371  SER374  ILE375  ASN378  PHE381  TYR383  GLN384  PHE387  LEU408  LEU417 
 MET419  LEU428  TYR466  MET469  ASN472  ASP496  VAL498  LEU499  MET503  HIS524 
 TRP525 

> <Gold.Protein.RotatedAtoms>
   -3.6560  -29.5292  -30.3776 H   0  0  0  0  0  0  0  0  0  0  0  0  # atno 3525 bound_to 925 
  -11.8539  -23.7998  -31.3844 H   0  0  0  0  0  0  0  0  0  0  0  0  # atno 3677 bound_to 1070
   -9.2422  -36.4082  -33.1080 H   0  0  0  0  0  0  0  0  0  0  0  0  # atno 3781 bound_to 1176
  -14.9061  -28.9446  -37.2837 H   0  0  0  0  0  0  0  0  0  0  0  0  # atno 3847 bound_to 1247
  -12.4959  -24.3667  -38.9233 H   0  0  0  0  0  0  0  0  0  0  0  0  # atno 4507 bound_to 1931
   -1.3702  -32.6830  -36.9748 H   0  0  0  0  0  0  0  0  0  0  0  0  # atno 4531 bound_to 1957
  -10.4238  -37.3927  -32.5763 LP  0  0  0  0  0  0  0  0  0  0  0  0  # atno 5205 bound_to 1176
  -10.4503  -36.8355  -34.1111 LP  0  0  0  0  0  0  0  0  0  0  0  0  # atno 5206 bound_to 1176
  -16.0561  -27.7933  -37.2700 LP  0  0  0  0  0  0  0  0  0  0  0  0  # atno 5215 bound_to 1247
  -14.6042  -27.4932  -37.9547 LP  0  0  0  0  0  0  0  0  0  0  0  0  # atno 5216 bound_to 1247
  -13.5941  -25.3576  -39.6017 LP  0  0  0  0  0  0  0  0  0  0  0  0  # atno 5217 bound_to 1931
  -13.1089  -24.0113  -40.3882 LP  0  0  0  0  0  0  0  0  0  0  0  0  # atno 5218 bound_to 1931
  -11.2543  -22.3766  -30.8716 LP  0  0  0  0  0  0  0  0  0  0  0  0  # atno 5224 bound_to 1070
  -12.7465  -22.8516  -30.4085 LP  0  0  0  0  0  0  0  0  0  0  0  0  # atno 5225 bound_to 1070

$$$$
IA_150.cdx|SeH_inactivess_minimized|sdf|52|dock8
  -GOLD-   4172119473D 1   1.00000     0.00000

 30 31  0  0  0  0  0  0  0  0  1 V2000
   -9.2282  -26.5150  -35.1297 C   0  0  0  0  0  0  0  0  0  0  0  0
  -10.0085  -27.1844  -36.0723 C   0  0  0  0  0  0  0  0  0  0  0  0
   -9.8109  -25.5667  -34.2889 C   0  0  0  0  0  0  0  0  0  0  0  0
  -17.6177  -24.0191  -38.5281 C   0  0  0  0  0  0  0  0  0  0  0  0
  -11.9540  -25.9572  -35.3335 C   0  0  0  0  0  0  0  0  0  0  0  0
  -16.4678  -24.4871  -39.1641 C   0  0  0  0  0  0  0  0  0  0  0  0
  -11.3713  -26.9054  -36.1743 C   0  0  0  0  0  0  0  0  0  0  0  0
  -11.1738  -25.2878  -34.3907 C   0  0  0  0  0  0  0  0  0  0  0  0
  -16.4780  -24.7225  -40.5389 C   0  0  0  0  0  0  0  0  0  0  0  0
  -18.7879  -24.0219  -40.6418 C   0  0  0  0  0  0  0  0  0  0  0  0
  -18.7776  -23.7865  -39.2670 C   0  0  0  0  0  0  0  0  0  0  0  0
  -17.6381  -24.4899  -41.2777 C   0  0  0  0  0  0  0  0  0  0  0  0
  -13.3755  -25.6665  -35.4395 C   0  0  0  0  0  0  0  0  0  0  0  0
  -15.1926  -25.0063  -37.0458 C   0  0  0  0  0  0  0  0  0  0  0  0
  -15.2934  -24.7228  -38.4119 N   0  0  0  0  0  0  0  0  0  0  0  0
  -13.8548  -25.3007  -36.7115 N   0  0  0  0  0  0  0  0  0  0  0  0
  -14.1143  -25.7702  -34.4452 O   0  0  0  0  0  0  0  0  0  0  0  0
  -16.1086  -25.0064  -36.2273 O   0  0  0  0  0  0  0  0  0  0  0  0
  -12.1121  -27.5546  -37.0839 F   0  0  0  0  0  0  0  0  0  0  0  0
  -11.7236  -24.3746  -33.5777 F   0  0  0  0  0  0  0  0  0  0  0  0
  -15.3697  -25.1736  -41.1468 F   0  0  0  0  0  0  0  0  0  0  0  0
  -19.9043  -23.7979  -41.3524 F   0  0  0  0  0  0  0  0  0  0  0  0
  -20.1935  -23.2091  -38.4755 Cl  0  0  0  0  0  0  0  0  0  0  0  0
  -17.6502  -24.7809  -42.9753 Cl  0  0  0  0  0  0  0  0  0  0  0  0
   -8.1671  -26.7324  -35.0502 H   0  0  0  0  0  0  0  0  0  0  0  0
   -9.5549  -27.9226  -36.7273 H   0  0  0  0  0  0  0  0  0  0  0  0
   -9.2036  -25.0452  -33.5549 H   0  0  0  0  0  0  0  0  0  0  0  0
  -17.6063  -23.8363  -37.4553 H   0  0  0  0  0  0  0  0  0  0  0  0
  -14.4209  -24.6795  -38.9324 H   0  0  0  0  0  0  0  0  0  0  0  0
  -13.1714  -25.2433  -37.4605 H   0  0  0  0  0  0  0  0  0  0  0  0
  1  2  2  0  0  0  0
  1  3  1  0  0  0  0
  2  7  1  0  0  0  0
  3  8  2  0  0  0  0
  4  6  2  0  0  0  0
  4 11  1  0  0  0  0
  5  7  2  0  0  0  0
  5  8  1  0  0  0  0
  5 13  1  0  0  0  0
  6  9  1  0  0  0  0
  6 15  1  0  0  0  0
  7 19  1  0  0  0  0
  8 20  1  0  0  0  0
  9 12  2  0  0  0  0
  9 21  1  0  0  0  0
 10 11  2  0  0  0  0
 10 12  1  0  0  0  0
 10 22  1  0  0  0  0
 11 23  1  0  0  0  0
 12 24  1  0  0  0  0
 13 16  1  0  0  0  0
 13 17  2  0  0  0  0
 14 15  1  0  0  0  0
 14 16  1  0  0  0  0
 14 18  2  0  0  0  0
  1 25  1  0  0  0  0
  2 26  1  0  0  0  0
  3 27  1  0  0  0  0
  4 28  1  0  0  0  0
 15 29  1  0  0  0  0
 16 30  1  0  0  0  0
M  END
> <Name>
IA_150.cdx

> <SourceTag>
IA_150

> <Gold.Version>
5.2

> <Gold.Id.Protein>
6HGV|6HGV_protein|mol2

> <Gold.Goldscore.Fitness>
58.3716

> <Gold.Goldscore.Internal.Vdw>
-5.8581

> <Gold.Goldscore.Internal.Torsion>
-5.6895

> <Gold.Goldscore.External.Vdw>
41.4959

> <Gold.Goldscore.Internal.HBond>
0.0000

> <Gold.Goldscore.External.HBond>
2.3021

> <Gold.Goldscore.Internal.Correction>
-10.5602

> <Gold.Goldscore.Hbonds>
donor molecule, donor type, donor heavy atom, donor atom, acceptor molecule, acceptor atom, score
      L1  H    15    29       P1  1931  0.97
      L1  H    16    30       P1  1931  0.18

> <Gold.Goldscore.Internal.Vdw.Weighted>
-5.8581

> <Gold.Goldscore.Internal.Torsion.Weighted>
-5.6895

> <Gold.Goldscore.External.Vdw.Weighted>
57.0569

> <Gold.Goldscore.Internal.HBond.Weighted>
0.0000

> <Gold.Goldscore.External.HBond.Weighted>
2.3021

> <Gold.Goldscore.Internal.Correction.Weighted>
-10.5602

> <Gold.Protein.RotatedTorsions>
[ 3781 1176 1175 1172 ] final -129.87 input   60.00 | X-H torsion
[ 3847 1247 1246 1244 ] final  153.68 input   60.00 | X-H torsion
[ 4507 1931 1930 1928 ] final  158.88 input   60.00 | X-H torsion
[ 3677 1070 1069 1066 ] final  -80.74 input   60.00 | X-H torsion
[ 3525  925  924  922 ] final   75.30 input   59.99 | X-H torsion
[ 4531 1957 1955 1953 ] final   46.31 input   60.00 | X-H torsion

> <Gold.Protein.ActiveResidues>
 PHE267  PRO268  MET310  ASP335  TRP336  MET339  TYR343  THR360  PRO361  ILE363 
 PRO371  SER374  ILE375  ASN378  PHE381  TYR383  GLN384  PHE387  LEU408  LEU417 
 MET419  LEU428  TYR466  MET469  ASN472  ASP496  VAL498  LEU499  MET503  HIS524 
 TRP525 

> <Gold.Protein.RotatedAtoms>
   -2.5842  -29.9567  -30.8122 H   0  0  0  0  0  0  0  0  0  0  0  0  # atno 3525 bound_to 925 
  -12.0219  -23.8377  -31.3234 H   0  0  0  0  0  0  0  0  0  0  0  0  # atno 3677 bound_to 1070
   -9.3811  -36.3101  -33.6172 H   0  0  0  0  0  0  0  0  0  0  0  0  # atno 3781 bound_to 1176
  -14.4085  -27.7789  -37.9249 H   0  0  0  0  0  0  0  0  0  0  0  0  # atno 3847 bound_to 1247
  -12.6667  -23.7792  -39.9183 H   0  0  0  0  0  0  0  0  0  0  0  0  # atno 4507 bound_to 1931
   -3.0969  -33.1960  -36.6554 H   0  0  0  0  0  0  0  0  0  0  0  0  # atno 4531 bound_to 1957
   -9.9758  -37.1707  -32.3708 LP  0  0  0  0  0  0  0  0  0  0  0  0  # atno 5205 bound_to 1176
  -10.7585  -37.1562  -33.8038 LP  0  0  0  0  0  0  0  0  0  0  0  0  # atno 5206 bound_to 1176
  -15.2275  -28.9533  -37.1515 LP  0  0  0  0  0  0  0  0  0  0  0  0  # atno 5215 bound_to 1247
  -15.9339  -27.5070  -37.4275 LP  0  0  0  0  0  0  0  0  0  0  0  0  # atno 5216 bound_to 1247
  -12.8363  -24.9491  -38.8001 LP  0  0  0  0  0  0  0  0  0  0  0  0  # atno 5217 bound_to 1931
  -13.6947  -25.0115  -40.1878 LP  0  0  0  0  0  0  0  0  0  0  0  0  # atno 5218 bound_to 1931
  -11.1675  -22.4955  -30.9820 LP  0  0  0  0  0  0  0  0  0  0  0  0  # atno 5224 bound_to 1070
  -12.6641  -22.6945  -30.3596 LP  0  0  0  0  0  0  0  0  0  0  0  0  # atno 5225 bound_to 1070

$$$$
IA_131.cdx|SeH_inactivess_minimized|sdf|33|dock5
  -GOLD-   4172119183D 1   1.00000     0.00000

 42 42  0  0  0  0  0  0  0  0  1 V2000
   -5.2669  -30.1077  -34.4201 C   0  0  0  0  0  0  0  0  0  0  0  0
   -4.2528  -30.4299  -33.5183 C   0  0  0  0  0  0  0  0  0  0  0  0
   -6.8471  -31.3624  -33.0913 C   0  0  0  0  0  0  0  0  0  0  0  0
   -6.5642  -30.5739  -34.2065 C   0  0  0  0  0  0  0  0  0  0  0  0
   -4.5357  -31.2184  -32.4030 C   0  0  0  0  0  0  0  0  0  0  0  0
   -5.8330  -31.6846  -32.1895 C   0  0  0  0  0  0  0  0  0  0  0  0
  -12.2209  -25.2830  -35.6007 C   0  0  0  0  0  0  0  0  0  0  0  0
   -8.2655  -31.2714  -35.8800 C   0  0  0  0  0  0  0  0  0  0  0  0
   -6.1130  -32.5632  -35.7503 C   0  0  0  0  0  0  0  0  0  0  0  0
   -8.2102  -33.7438  -36.3025 C   0  0  0  0  0  0  0  0  0  0  0  0
  -11.4639  -25.3169  -34.2929 C   0  0  0  0  0  0  0  0  0  0  0  0
  -10.9664  -26.7227  -33.9568 C   0  0  0  0  0  0  0  0  0  0  0  0
   -9.8552  -27.1603  -34.9129 C   0  0  0  0  0  0  0  0  0  0  0  0
   -9.3198  -28.5640  -34.6201 C   0  0  0  0  0  0  0  0  0  0  0  0
   -8.0018  -28.8686  -35.3233 C   0  0  0  0  0  0  0  0  0  0  0  0
   -7.6117  -30.2403  -35.1381 N   0  0  0  0  0  0  0  0  0  0  0  0
   -7.5555  -32.4849  -35.9747 N   0  0  0  0  0  0  0  0  0  0  0  0
  -11.8995  -24.6406  -36.5907 O   0  0  0  0  0  0  0  0  0  0  0  0
   -9.3556  -31.1081  -36.4417 O   0  0  0  0  0  0  0  0  0  0  0  0
  -13.3297  -26.0669  -35.5526 O   0  0  0  0  0  0  0  0  0  0  0  0
   -3.2358  -31.5855  -31.3243 Cl  0  0  0  0  0  0  0  0  0  0  0  0
   -6.2452  -32.6668  -30.8278 Cl  0  0  0  0  0  0  0  0  0  0  0  0
   -5.0360  -29.4914  -35.2851 H   0  0  0  0  0  0  0  0  0  0  0  0
   -3.2479  -30.0566  -33.6997 H   0  0  0  0  0  0  0  0  0  0  0  0
   -7.8608  -31.7242  -32.9307 H   0  0  0  0  0  0  0  0  0  0  0  0
   -5.6320  -31.6357  -36.0718 H   0  0  0  0  0  0  0  0  0  0  0  0
   -5.6870  -33.3954  -36.3172 H   0  0  0  0  0  0  0  0  0  0  0  0
   -5.9036  -32.7187  -34.6885 H   0  0  0  0  0  0  0  0  0  0  0  0
   -9.2951  -33.6338  -36.2268 H   0  0  0  0  0  0  0  0  0  0  0  0
   -7.8871  -34.5286  -35.6131 H   0  0  0  0  0  0  0  0  0  0  0  0
   -7.9575  -34.0470  -37.3220 H   0  0  0  0  0  0  0  0  0  0  0  0
  -12.1336  -24.9642  -33.5005 H   0  0  0  0  0  0  0  0  0  0  0  0
  -10.6117  -24.6331  -34.3742 H   0  0  0  0  0  0  0  0  0  0  0  0
  -11.8017  -27.4317  -34.0108 H   0  0  0  0  0  0  0  0  0  0  0  0
  -10.6033  -26.7383  -32.9226 H   0  0  0  0  0  0  0  0  0  0  0  0
  -10.2410  -27.1491  -35.9398 H   0  0  0  0  0  0  0  0  0  0  0  0
   -9.0305  -26.4380  -34.8778 H   0  0  0  0  0  0  0  0  0  0  0  0
  -10.0746  -29.2940  -34.9394 H   0  0  0  0  0  0  0  0  0  0  0  0
   -9.2028  -28.6992  -33.5376 H   0  0  0  0  0  0  0  0  0  0  0  0
   -7.1892  -28.2508  -34.9307 H   0  0  0  0  0  0  0  0  0  0  0  0
   -8.0819  -28.6964  -36.4010 H   0  0  0  0  0  0  0  0  0  0  0  0
  -13.8487  -26.1008  -36.3846 H   0  0  0  0  0  0  0  0  0  0  0  0
  1  2  1  0  0  0  0
  1  4  2  0  0  0  0
  2  5  2  0  0  0  0
  3  4  1  0  0  0  0
  3  6  2  0  0  0  0
  4 16  1  0  0  0  0
  5  6  1  0  0  0  0
  5 21  1  0  0  0  0
  6 22  1  0  0  0  0
  7 11  1  0  0  0  0
  7 18  2  0  0  0  0
  7 20  1  0  0  0  0
  8 16  1  0  0  0  0
  8 17  1  0  0  0  0
  8 19  2  0  0  0  0
  9 17  1  0  0  0  0
 10 17  1  0  0  0  0
 11 12  1  0  0  0  0
 12 13  1  0  0  0  0
 13 14  1  0  0  0  0
 14 15  1  0  0  0  0
 15 16  1  0  0  0  0
  1 23  1  0  0  0  0
  2 24  1  0  0  0  0
  3 25  1  0  0  0  0
  9 26  1  0  0  0  0
  9 27  1  0  0  0  0
  9 28  1  0  0  0  0
 10 29  1  0  0  0  0
 10 30  1  0  0  0  0
 10 31  1  0  0  0  0
 11 32  1  0  0  0  0
 11 33  1  0  0  0  0
 12 34  1  0  0  0  0
 12 35  1  0  0  0  0
 13 36  1  0  0  0  0
 13 37  1  0  0  0  0
 14 38  1  0  0  0  0
 14 39  1  0  0  0  0
 15 40  1  0  0  0  0
 15 41  1  0  0  0  0
 20 42  1  0  0  0  0
M  END
> <Name>
IA_131.cdx

> <SourceTag>
IA_131

> <Gold.Version>
5.2

> <Gold.Id.Protein>
6HGV|6HGV_protein|mol2

> <Gold.Goldscore.Fitness>
55.2009

> <Gold.Goldscore.Internal.Vdw>
-12.1456

> <Gold.Goldscore.Internal.Torsion>
-14.2580

> <Gold.Goldscore.External.Vdw>
39.3500

> <Gold.Goldscore.Internal.HBond>
0.0000

> <Gold.Goldscore.External.HBond>
1.8736

> <Gold.Goldscore.Internal.Correction>
-25.6245

> <Gold.Goldscore.Hbonds>
donor molecule, donor type, donor heavy atom, donor atom, acceptor molecule, acceptor atom, score
      P1  H  1931  4507       L1    18  0.94

> <Gold.Goldscore.Internal.Vdw.Weighted>
-12.1456

> <Gold.Goldscore.Internal.Torsion.Weighted>
-14.2580

> <Gold.Goldscore.External.Vdw.Weighted>
54.1063

> <Gold.Goldscore.Internal.HBond.Weighted>
0.0000

> <Gold.Goldscore.External.HBond.Weighted>
1.8736

> <Gold.Goldscore.Internal.Correction.Weighted>
-25.6245

> <Gold.Protein.RotatedTorsions>
[ 3781 1176 1175 1172 ] final -151.42 input   60.00 | X-H torsion
[ 3847 1247 1246 1244 ] final  108.59 input   60.00 | X-H torsion
[ 4507 1931 1930 1928 ] final   58.70 input   60.00 | X-H torsion
[ 3677 1070 1069 1066 ] final -105.11 input   60.00 | X-H torsion
[ 3525  925  924  922 ] final  -80.21 input   59.99 | X-H torsion
[ 4531 1957 1955 1953 ] final    5.76 input   60.00 | X-H torsion

> <Gold.Protein.ActiveResidues>
 PHE267  PRO268  MET310  ASP335  TRP336  MET339  TYR343  THR360  PRO361  ILE363 
 PRO371  SER374  ILE375  ASN378  PHE381  TYR383  GLN384  PHE387  LEU408  LEU417 
 MET419  LEU428  TYR466  MET469  ASN472  ASP496  VAL498  LEU499  MET503  HIS524 
 TRP525 

> <Gold.Protein.RotatedAtoms>
   -3.5424  -29.6793  -29.2782 H   0  0  0  0  0  0  0  0  0  0  0  0  # atno 3525 bound_to 925 
  -11.6616  -23.7171  -31.4318 H   0  0  0  0  0  0  0  0  0  0  0  0  # atno 3677 bound_to 1070
   -9.2620  -36.3529  -33.2909 H   0  0  0  0  0  0  0  0  0  0  0  0  # atno 3781 bound_to 1176
  -14.3512  -28.4546  -37.6889 H   0  0  0  0  0  0  0  0  0  0  0  0  # atno 3847 bound_to 1247
  -12.6496  -24.6849  -38.8039 H   0  0  0  0  0  0  0  0  0  0  0  0  # atno 4507 bound_to 1931
   -2.9159  -32.5733  -36.6791 H   0  0  0  0  0  0  0  0  0  0  0  0  # atno 4531 bound_to 1957
  -10.2728  -37.3309  -32.4724 LP  0  0  0  0  0  0  0  0  0  0  0  0  # atno 5205 bound_to 1176
  -10.5813  -36.9530  -34.0308 LP  0  0  0  0  0  0  0  0  0  0  0  0  # atno 5206 bound_to 1176
  -15.8423  -28.5861  -37.0507 LP  0  0  0  0  0  0  0  0  0  0  0  0  # atno 5215 bound_to 1247
  -15.3769  -27.1938  -37.7659 LP  0  0  0  0  0  0  0  0  0  0  0  0  # atno 5216 bound_to 1247
  -13.6908  -25.2162  -39.9360 LP  0  0  0  0  0  0  0  0  0  0  0  0  # atno 5217 bound_to 1931
  -12.8573  -23.8323  -40.1742 LP  0  0  0  0  0  0  0  0  0  0  0  0  # atno 5218 bound_to 1931
  -11.3900  -22.2679  -30.7431 LP  0  0  0  0  0  0  0  0  0  0  0  0  # atno 5224 bound_to 1070
  -12.8045  -23.0435  -30.4893 LP  0  0  0  0  0  0  0  0  0  0  0  0  # atno 5225 bound_to 1070

$$$$
IA_70.cdx|SeH_inactivess_minimized|sdf|148|dock5
  -GOLD-   4172122 63D 1   1.00000     0.00000

 14 13  0  0  0  0  0  0  0  0  1 V2000
  -11.2128  -25.8401  -36.5074 C   0  0  0  0  0  0  0  0  0  0  0  0
   -9.6498  -26.1587  -34.5815 C   0  0  0  0  0  0  0  0  0  0  0  0
  -11.8280  -25.0477  -34.2131 C   0  0  0  0  0  0  0  0  0  0  0  0
  -12.2028  -25.0094  -36.9940 N   0  0  0  0  0  0  0  0  0  0  0  0
  -10.9066  -25.6879  -35.1480 N   0  0  0  0  0  0  0  0  0  0  0  0
  -10.6630  -26.6595  -37.2488 O   0  0  0  0  0  0  0  0  0  0  0  0
   -9.0319  -26.6106  -35.3618 H   0  0  0  0  0  0  0  0  0  0  0  0
   -9.8410  -26.9064  -33.8069 H   0  0  0  0  0  0  0  0  0  0  0  0
   -9.1003  -25.3252  -34.1360 H   0  0  0  0  0  0  0  0  0  0  0  0
  -11.5598  -25.3055  -33.1853 H   0  0  0  0  0  0  0  0  0  0  0  0
  -12.8519  -25.3808  -34.4037 H   0  0  0  0  0  0  0  0  0  0  0  0
  -11.7863  -23.9610  -34.3257 H   0  0  0  0  0  0  0  0  0  0  0  0
  -12.4748  -25.0656  -37.9680 H   0  0  0  0  0  0  0  0  0  0  0  0
  -12.6590  -24.3428  -36.3795 H   0  0  0  0  0  0  0  0  0  0  0  0
  1  4  1  0  0  0  0
  1  5  1  0  0  0  0
  1  6  2  0  0  0  0
  2  5  1  0  0  0  0
  3  5  1  0  0  0  0
  2  7  1  0  0  0  0
  2  8  1  0  0  0  0
  2  9  1  0  0  0  0
  3 10  1  0  0  0  0
  3 11  1  0  0  0  0
  3 12  1  0  0  0  0
  4 13  1  0  0  0  0
  4 14  1  0  0  0  0
M  END
> <Name>
IA_70.cdx

> <SourceTag>
IA_70

> <Gold.Version>
5.2

> <Gold.Id.Protein>
6HGV|6HGV_protein|mol2

> <Gold.Goldscore.Fitness>
31.0127

> <Gold.Goldscore.Internal.Vdw>
-3.5773

> <Gold.Goldscore.Internal.Torsion>
-4.1668

> <Gold.Goldscore.External.Vdw>
18.4826

> <Gold.Goldscore.Internal.HBond>
0.0000

> <Gold.Goldscore.External.HBond>
6.6327

> <Gold.Goldscore.Internal.Correction>
-6.7104

> <Gold.Goldscore.Hbonds>
donor molecule, donor type, donor heavy atom, donor atom, acceptor molecule, acceptor atom, score
      L1  H     4    13       P1  1931  1.00
      L1  H     4    14       P1   853  0.77

> <Gold.Goldscore.Internal.Vdw.Weighted>
-3.5773

> <Gold.Goldscore.Internal.Torsion.Weighted>
-4.1668

> <Gold.Goldscore.External.Vdw.Weighted>
25.4136

> <Gold.Goldscore.Internal.HBond.Weighted>
0.0000

> <Gold.Goldscore.External.HBond.Weighted>
6.6327

> <Gold.Goldscore.Internal.Correction.Weighted>
-6.7104

> <Gold.Protein.RotatedTorsions>
[ 3781 1176 1175 1172 ] final    4.21 input   60.00 | X-H torsion
[ 3847 1247 1246 1244 ] final  171.71 input   60.00 | X-H torsion
[ 4507 1931 1930 1928 ] final  -79.82 input   60.00 | X-H torsion
[ 3677 1070 1069 1066 ] final -128.41 input   60.00 | X-H torsion
[ 3525  925  924  922 ] final   12.46 input   59.99 | X-H torsion
[ 4531 1957 1955 1953 ] final  161.24 input   60.00 | X-H torsion

> <Gold.Protein.ActiveResidues>
 PHE267  PRO268  MET310  ASP335  TRP336  MET339  TYR343  THR360  PRO361  ILE363 
 PRO371  SER374  ILE375  ASN378  PHE381  TYR383  GLN384  PHE387  LEU408  LEU417 
 MET419  LEU428  TYR466  MET469  ASN472  ASP496  VAL498  LEU499  MET503  HIS524 
 TRP525 

> <Gold.Protein.RotatedAtoms>
   -3.4688  -29.5879  -30.6276 H   0  0  0  0  0  0  0  0  0  0  0  0  # atno 3525 bound_to 925 
  -11.3644  -23.4837  -31.4450 H   0  0  0  0  0  0  0  0  0  0  0  0  # atno 3677 bound_to 1070
  -10.8141  -37.2687  -33.6105 H   0  0  0  0  0  0  0  0  0  0  0  0  # atno 3781 bound_to 1176
  -14.5722  -27.5371  -37.9532 H   0  0  0  0  0  0  0  0  0  0  0  0  # atno 3847 bound_to 1247
  -13.6906  -25.0248  -40.1703 H   0  0  0  0  0  0  0  0  0  0  0  0  # atno 4507 bound_to 1931
   -1.7373  -33.9510  -36.9269 H   0  0  0  0  0  0  0  0  0  0  0  0  # atno 4531 bound_to 1957
   -9.5075  -36.3194  -33.8097 LP  0  0  0  0  0  0  0  0  0  0  0  0  # atno 5205 bound_to 1176
   -9.7836  -37.0422  -32.3717 LP  0  0  0  0  0  0  0  0  0  0  0  0  # atno 5206 bound_to 1176
  -14.9519  -28.9584  -37.2577 LP  0  0  0  0  0  0  0  0  0  0  0  0  # atno 5215 bound_to 1247
  -16.0447  -27.7455  -37.2928 LP  0  0  0  0  0  0  0  0  0  0  0  0  # atno 5216 bound_to 1247
  -12.6769  -23.7733  -39.9374 LP  0  0  0  0  0  0  0  0  0  0  0  0  # atno 5217 bound_to 1931
  -12.8229  -24.9328  -38.7968 LP  0  0  0  0  0  0  0  0  0  0  0  0  # atno 5218 bound_to 1931
  -11.6970  -22.1738  -30.5385 LP  0  0  0  0  0  0  0  0  0  0  0  0  # atno 5224 bound_to 1070
  -12.7967  -23.3726  -30.6806 LP  0  0  0  0  0  0  0  0  0  0  0  0  # atno 5225 bound_to 1070

$$$$
IA_133.cdx|SeH_inactivess_minimized|sdf|35|dock1
  -GOLD-   4172119223D 1   1.00000     0.00000

 27 28  0  0  0  0  0  0  0  0  1 V2000
  -13.9449  -26.1438  -36.1683 C   0  0  0  0  0  0  0  0  0  0  0  0
  -14.9835  -26.5394  -35.3306 C   0  0  0  0  0  0  0  0  0  0  0  0
  -16.9220  -22.9856  -38.3674 C   0  0  0  0  0  0  0  0  0  0  0  0
  -14.1626  -25.1612  -37.1346 C   0  0  0  0  0  0  0  0  0  0  0  0
  -16.2437  -25.9541  -35.4559 C   0  0  0  0  0  0  0  0  0  0  0  0
  -15.6617  -23.5709  -38.2420 C   0  0  0  0  0  0  0  0  0  0  0  0
  -17.9605  -23.3813  -37.5296 C   0  0  0  0  0  0  0  0  0  0  0  0
  -15.4247  -24.5613  -37.2749 C   0  0  0  0  0  0  0  0  0  0  0  0
  -16.4808  -24.9637  -36.4230 C   0  0  0  0  0  0  0  0  0  0  0  0
  -17.7429  -24.3639  -36.5633 C   0  0  0  0  0  0  0  0  0  0  0  0
  -20.1741  -24.8779  -36.1102 C   0  0  0  0  0  0  0  0  0  0  0  0
  -22.3690  -25.4740  -35.0729 C   0  0  0  0  0  0  0  0  0  0  0  0
  -18.8239  -24.7212  -35.7486 N   0  0  0  0  0  0  0  0  0  0  0  0
  -20.9445  -25.2435  -35.0016 N   0  0  0  0  0  0  0  0  0  0  0  0
  -20.6458  -24.7234  -37.2342 O   0  0  0  0  0  0  0  0  0  0  0  0
  -12.9641  -26.5999  -36.0703 H   0  0  0  0  0  0  0  0  0  0  0  0
  -14.8130  -27.3043  -34.5784 H   0  0  0  0  0  0  0  0  0  0  0  0
  -17.0917  -22.2206  -39.1195 H   0  0  0  0  0  0  0  0  0  0  0  0
  -13.3364  -24.8676  -37.7787 H   0  0  0  0  0  0  0  0  0  0  0  0
  -17.0282  -26.2909  -34.7821 H   0  0  0  0  0  0  0  0  0  0  0  0
  -14.8646  -23.2458  -38.9073 H   0  0  0  0  0  0  0  0  0  0  0  0
  -18.9371  -22.9163  -37.6391 H   0  0  0  0  0  0  0  0  0  0  0  0
  -22.5862  -26.5344  -34.9201 H   0  0  0  0  0  0  0  0  0  0  0  0
  -22.7518  -25.1739  -36.0522 H   0  0  0  0  0  0  0  0  0  0  0  0
  -22.8847  -24.8944  -34.3025 H   0  0  0  0  0  0  0  0  0  0  0  0
  -18.6139  -24.8930  -34.7619 H   0  0  0  0  0  0  0  0  0  0  0  0
  -20.4812  -25.3520  -34.1050 H   0  0  0  0  0  0  0  0  0  0  0  0
  1  2  1  0  0  0  0
  1  4  2  0  0  0  0
  2  5  2  0  0  0  0
  3  6  1  0  0  0  0
  3  7  2  0  0  0  0
  4  8  1  0  0  0  0
  5  9  1  0  0  0  0
  6  8  2  0  0  0  0
  7 10  1  0  0  0  0
  8  9  1  0  0  0  0
  9 10  2  0  0  0  0
 10 13  1  0  0  0  0
 11 13  1  0  0  0  0
 11 14  1  0  0  0  0
 11 15  2  0  0  0  0
 12 14  1  0  0  0  0
  1 16  1  0  0  0  0
  2 17  1  0  0  0  0
  3 18  1  0  0  0  0
  4 19  1  0  0  0  0
  5 20  1  0  0  0  0
  6 21  1  0  0  0  0
  7 22  1  0  0  0  0
 12 23  1  0  0  0  0
 12 24  1  0  0  0  0
 12 25  1  0  0  0  0
 13 26  1  0  0  0  0
 14 27  1  0  0  0  0
M  END
> <Name>
IA_133.cdx

> <SourceTag>
IA_133

> <Gold.Version>
5.2

> <Gold.Id.Protein>
6HGV|6HGV_protein|mol2

> <Gold.Goldscore.Fitness>
46.1629

> <Gold.Goldscore.Internal.Vdw>
-2.5205

> <Gold.Goldscore.Internal.Torsion>
-3.1956

> <Gold.Goldscore.External.Vdw>
32.8183

> <Gold.Goldscore.Internal.HBond>
0.0000

> <Gold.Goldscore.External.HBond>
1.4820

> <Gold.Goldscore.Internal.Correction>
-5.2718

> <Gold.Goldscore.Hbonds>
donor molecule, donor type, donor heavy atom, donor atom, acceptor molecule, acceptor atom, score
      L1  H    14    27       P1  2185  0.25

> <Gold.Goldscore.Internal.Vdw.Weighted>
-2.5205

> <Gold.Goldscore.Internal.Torsion.Weighted>
-3.1956

> <Gold.Goldscore.External.Vdw.Weighted>
45.1252

> <Gold.Goldscore.Internal.HBond.Weighted>
0.0000

> <Gold.Goldscore.External.HBond.Weighted>
1.4820

> <Gold.Goldscore.Internal.Correction.Weighted>
-5.2718

> <Gold.Protein.RotatedTorsions>
[ 3781 1176 1175 1172 ] final   49.03 input   60.00 | X-H torsion
[ 3847 1247 1246 1244 ] final   66.21 input   60.00 | X-H torsion
[ 4507 1931 1930 1928 ] final -119.94 input   60.00 | X-H torsion
[ 3677 1070 1069 1066 ] final  -85.86 input   60.00 | X-H torsion
[ 3525  925  924  922 ] final  173.71 input   59.99 | X-H torsion
[ 4531 1957 1955 1953 ] final   80.05 input   60.00 | X-H torsion

> <Gold.Protein.ActiveResidues>
 PHE267  PRO268  MET310  ASP335  TRP336  MET339  TYR343  THR360  PRO361  ILE363 
 PRO371  SER374  ILE375  ASN378  PHE381  TYR383  GLN384  PHE387  LEU408  LEU417 
 MET419  LEU428  TYR466  MET469  ASN472  ASP496  VAL498  LEU499  MET503  HIS524 
 TRP525 

> <Gold.Protein.RotatedAtoms>
   -2.1775  -30.2552  -29.4874 H   0  0  0  0  0  0  0  0  0  0  0  0  # atno 3525 bound_to 925 
  -11.9452  -23.8243  -31.3534 H   0  0  0  0  0  0  0  0  0  0  0  0  # atno 3677 bound_to 1070
  -10.6995  -37.4475  -32.9290 H   0  0  0  0  0  0  0  0  0  0  0  0  # atno 3781 bound_to 1176
  -14.7497  -28.8946  -37.3642 H   0  0  0  0  0  0  0  0  0  0  0  0  # atno 3847 bound_to 1247
  -13.4892  -24.4917  -40.4661 H   0  0  0  0  0  0  0  0  0  0  0  0  # atno 4507 bound_to 1931
   -2.9087  -33.7038  -36.7000 H   0  0  0  0  0  0  0  0  0  0  0  0  # atno 4531 bound_to 1957
  -10.0837  -36.5740  -34.1561 LP  0  0  0  0  0  0  0  0  0  0  0  0  # atno 5205 bound_to 1176
   -9.3229  -36.6075  -32.7116 LP  0  0  0  0  0  0  0  0  0  0  0  0  # atno 5206 bound_to 1176
  -16.0731  -27.9622  -37.1987 LP  0  0  0  0  0  0  0  0  0  0  0  0  # atno 5215 bound_to 1247
  -14.7447  -27.3745  -37.9449 LP  0  0  0  0  0  0  0  0  0  0  0  0  # atno 5216 bound_to 1247
  -12.4433  -23.9276  -39.3544 LP  0  0  0  0  0  0  0  0  0  0  0  0  # atno 5217 bound_to 1931
  -13.2593  -25.3155  -39.0818 LP  0  0  0  0  0  0  0  0  0  0  0  0  # atno 5218 bound_to 1931
  -11.2036  -22.4385  -30.9318 LP  0  0  0  0  0  0  0  0  0  0  0  0  # atno 5224 bound_to 1070
  -12.7053  -22.7651  -30.3795 LP  0  0  0  0  0  0  0  0  0  0  0  0  # atno 5225 bound_to 1070

$$$$
IA_134.cdx|SeH_inactivess_minimized|sdf|36|dock6
  -GOLD-   4172119223D 1   1.00000     0.00000

 30 31  0  0  0  0  0  0  0  0  1 V2000
  -18.0708  -24.1453  -40.6085 C   0  0  0  0  0  0  0  0  0  0  0  0
  -16.6791  -24.1412  -40.6008 C   0  0  0  0  0  0  0  0  0  0  0  0
  -18.0942  -25.0530  -35.8285 C   0  0  0  0  0  0  0  0  0  0  0  0
  -18.7751  -24.3727  -39.4258 C   0  0  0  0  0  0  0  0  0  0  0  0
  -15.9864  -24.3644  -39.4107 C   0  0  0  0  0  0  0  0  0  0  0  0
  -18.7869  -24.8297  -37.0188 C   0  0  0  0  0  0  0  0  0  0  0  0
  -16.7025  -25.0490  -35.8210 C   0  0  0  0  0  0  0  0  0  0  0  0
  -18.0942  -24.5992  -38.2185 C   0  0  0  0  0  0  0  0  0  0  0  0
  -16.6790  -24.5951  -38.2109 C   0  0  0  0  0  0  0  0  0  0  0  0
  -15.9981  -24.8217  -37.0036 C   0  0  0  0  0  0  0  0  0  0  0  0
  -13.7666  -25.6857  -36.1947 C   0  0  0  0  0  0  0  0  0  0  0  0
  -10.7675  -25.2962  -34.6290 C   0  0  0  0  0  0  0  0  0  0  0  0
  -11.3359  -26.0789  -35.7634 C   0  0  0  0  0  0  0  0  0  0  0  0
  -14.5997  -24.8283  -36.9357 N   0  0  0  0  0  0  0  0  0  0  0  0
  -12.4203  -25.3653  -36.3975 N   0  0  0  0  0  0  0  0  0  0  0  0
  -14.1362  -26.5997  -35.4615 O   0  0  0  0  0  0  0  0  0  0  0  0
  -18.6096  -23.9716  -41.5354 H   0  0  0  0  0  0  0  0  0  0  0  0
  -16.1317  -23.9639  -41.5221 H   0  0  0  0  0  0  0  0  0  0  0  0
  -18.6423  -25.2299  -34.9076 H   0  0  0  0  0  0  0  0  0  0  0  0
  -19.8627  -24.3716  -39.4552 H   0  0  0  0  0  0  0  0  0  0  0  0
  -14.8994  -24.3530  -39.4470 H   0  0  0  0  0  0  0  0  0  0  0  0
  -19.8748  -24.8370  -37.0011 H   0  0  0  0  0  0  0  0  0  0  0  0
  -16.1763  -25.2245  -34.8859 H   0  0  0  0  0  0  0  0  0  0  0  0
  -11.5391  -25.0698  -33.8850 H   0  0  0  0  0  0  0  0  0  0  0  0
   -9.9509  -25.8447  -34.1469 H   0  0  0  0  0  0  0  0  0  0  0  0
  -10.3651  -24.3455  -34.9985 H   0  0  0  0  0  0  0  0  0  0  0  0
  -11.7285  -27.0370  -35.4095 H   0  0  0  0  0  0  0  0  0  0  0  0
  -10.5729  -26.2700  -36.5238 H   0  0  0  0  0  0  0  0  0  0  0  0
  -14.1128  -24.1224  -37.4941 H   0  0  0  0  0  0  0  0  0  0  0  0
  -12.1946  -24.5953  -37.0193 H   0  0  0  0  0  0  0  0  0  0  0  0
  1  2  1  0  0  0  0
  1  4  2  0  0  0  0
  2  5  2  0  0  0  0
  3  6  2  0  0  0  0
  3  7  1  0  0  0  0
  4  8  1  0  0  0  0
  5  9  1  0  0  0  0
  6  8  1  0  0  0  0
  7 10  2  0  0  0  0
  8  9  2  0  0  0  0
  9 10  1  0  0  0  0
 10 14  1  0  0  0  0
 11 14  1  0  0  0  0
 11 15  1  0  0  0  0
 11 16  2  0  0  0  0
 12 13  1  0  0  0  0
 13 15  1  0  0  0  0
  1 17  1  0  0  0  0
  2 18  1  0  0  0  0
  3 19  1  0  0  0  0
  4 20  1  0  0  0  0
  5 21  1  0  0  0  0
  6 22  1  0  0  0  0
  7 23  1  0  0  0  0
 12 24  1  0  0  0  0
 12 25  1  0  0  0  0
 12 26  1  0  0  0  0
 13 27  1  0  0  0  0
 13 28  1  0  0  0  0
 14 29  1  0  0  0  0
 15 30  1  0  0  0  0
M  END
> <Name>
IA_134.cdx

> <SourceTag>
IA_134

> <Gold.Version>
5.2

> <Gold.Id.Protein>
6HGV|6HGV_protein|mol2

> <Gold.Goldscore.Fitness>
49.0632

> <Gold.Goldscore.Internal.Vdw>
-2.7062

> <Gold.Goldscore.Internal.Torsion>
-3.2345

> <Gold.Goldscore.External.Vdw>
35.9269

> <Gold.Goldscore.Internal.HBond>
0.0000

> <Gold.Goldscore.External.HBond>
0.0000

> <Gold.Goldscore.Internal.Correction>
-5.6045

> <Gold.Goldscore.Internal.Vdw.Weighted>
-2.7062

> <Gold.Goldscore.Internal.Torsion.Weighted>
-3.2345

> <Gold.Goldscore.External.Vdw.Weighted>
49.3994

> <Gold.Goldscore.Internal.HBond.Weighted>
0.0000

> <Gold.Goldscore.External.HBond.Weighted>
0.0000

> <Gold.Goldscore.Internal.Correction.Weighted>
-5.6045

> <Gold.Protein.RotatedTorsions>
[ 3781 1176 1175 1172 ] final  -89.90 input   60.00 | X-H torsion
[ 3847 1247 1246 1244 ] final  -90.88 input   60.00 | X-H torsion
[ 4507 1931 1930 1928 ] final  132.96 input   60.00 | X-H torsion
[ 3677 1070 1069 1066 ] final -115.52 input   60.00 | X-H torsion
[ 3525  925  924  922 ] final   47.14 input   59.99 | X-H torsion
[ 4531 1957 1955 1953 ] final   31.97 input   60.00 | X-H torsion

> <Gold.Protein.ActiveResidues>
 PHE267  PRO268  MET310  ASP335  TRP336  MET339  TYR343  THR360  PRO361  ILE363 
 PRO371  SER374  ILE375  ASN378  PHE381  TYR383  GLN384  PHE387  LEU408  LEU417 
 MET419  LEU428  TYR466  MET469  ASN472  ASP496  VAL498  LEU499  MET503  HIS524 
 TRP525 

> <Gold.Protein.RotatedAtoms>
   -2.9974  -29.7719  -30.8627 H   0  0  0  0  0  0  0  0  0  0  0  0  # atno 3525 bound_to 925 
  -11.5198  -23.6251  -31.4492 H   0  0  0  0  0  0  0  0  0  0  0  0  # atno 3677 bound_to 1070
   -9.8224  -36.4377  -34.0628 H   0  0  0  0  0  0  0  0  0  0  0  0  # atno 3781 bound_to 1176
  -15.8894  -27.4599  -37.4657 H   0  0  0  0  0  0  0  0  0  0  0  0  # atno 3847 bound_to 1247
  -12.4915  -23.8440  -39.5422 H   0  0  0  0  0  0  0  0  0  0  0  0  # atno 4507 bound_to 1931
   -3.0833  -32.9628  -36.6540 H   0  0  0  0  0  0  0  0  0  0  0  0  # atno 4531 bound_to 1957
   -9.4780  -36.7861  -32.5110 LP  0  0  0  0  0  0  0  0  0  0  0  0  # atno 5205 bound_to 1176
  -10.8118  -37.4124  -33.2148 LP  0  0  0  0  0  0  0  0  0  0  0  0  # atno 5206 bound_to 1176
  -14.3722  -27.8435  -37.9117 LP  0  0  0  0  0  0  0  0  0  0  0  0  # atno 5215 bound_to 1247
  -15.2978  -28.9381  -37.1297 LP  0  0  0  0  0  0  0  0  0  0  0  0  # atno 5216 bound_to 1247
  -13.1191  -25.2245  -38.9519 LP  0  0  0  0  0  0  0  0  0  0  0  0  # atno 5217 bound_to 1931
  -13.5883  -24.6708  -40.4148 LP  0  0  0  0  0  0  0  0  0  0  0  0  # atno 5218 bound_to 1931
  -11.5186  -22.2095  -30.6466 LP  0  0  0  0  0  0  0  0  0  0  0  0  # atno 5224 bound_to 1070
  -12.8187  -23.1946  -30.5684 LP  0  0  0  0  0  0  0  0  0  0  0  0  # atno 5225 bound_to 1070

$$$$
IA_165.cdx|SeH_inactivess_minimized|sdf|67|dock6
  -GOLD-   4172120 63D 1   1.00000     0.00000

 32 31  0  0  0  0  0  0  0  0  1 V2000
  -14.8554  -25.3473  -37.0798 C   0  0  0  0  0  0  0  0  0  0  0  0
   -9.6788  -25.4810  -34.0299 C   0  0  0  0  0  0  0  0  0  0  0  0
  -17.5667  -24.2891  -42.0377 C   0  0  0  0  0  0  0  0  0  0  0  0
  -10.7730  -26.3566  -34.6207 C   0  0  0  0  0  0  0  0  0  0  0  0
  -16.9341  -24.7239  -40.7248 C   0  0  0  0  0  0  0  0  0  0  0  0
  -11.6071  -25.5901  -35.6497 C   0  0  0  0  0  0  0  0  0  0  0  0
  -17.0874  -23.6479  -39.6474 C   0  0  0  0  0  0  0  0  0  0  0  0
  -12.7358  -26.4331  -36.2339 C   0  0  0  0  0  0  0  0  0  0  0  0
  -16.7653  -24.1676  -38.2503 C   0  0  0  0  0  0  0  0  0  0  0  0
  -13.5162  -25.7104  -37.1999 N   0  0  0  0  0  0  0  0  0  0  0  0
  -15.4028  -24.6514  -38.1406 N   0  0  0  0  0  0  0  0  0  0  0  0
  -15.8305  -25.6950  -35.7548 S   0  0  0  0  0  0  0  0  0  0  0  0
  -10.1066  -24.6392  -33.4760 H   0  0  0  0  0  0  0  0  0  0  0  0
   -9.0597  -26.0625  -33.3396 H   0  0  0  0  0  0  0  0  0  0  0  0
   -9.0288  -25.0816  -34.8148 H   0  0  0  0  0  0  0  0  0  0  0  0
  -18.6412  -24.1177  -41.9173 H   0  0  0  0  0  0  0  0  0  0  0  0
  -17.1109  -23.3576  -42.3877 H   0  0  0  0  0  0  0  0  0  0  0  0
  -17.4243  -25.0490  -42.8127 H   0  0  0  0  0  0  0  0  0  0  0  0
  -10.3151  -27.2339  -35.0923 H   0  0  0  0  0  0  0  0  0  0  0  0
  -11.4128  -26.7205  -33.8090 H   0  0  0  0  0  0  0  0  0  0  0  0
  -17.4057  -25.6552  -40.3902 H   0  0  0  0  0  0  0  0  0  0  0  0
  -15.8737  -24.9400  -40.8967 H   0  0  0  0  0  0  0  0  0  0  0  0
  -12.0209  -24.6855  -35.1870 H   0  0  0  0  0  0  0  0  0  0  0  0
  -10.9552  -25.2645  -36.4693 H   0  0  0  0  0  0  0  0  0  0  0  0
  -16.4393  -22.7952  -39.8847 H   0  0  0  0  0  0  0  0  0  0  0  0
  -18.1205  -23.2795  -39.6526 H   0  0  0  0  0  0  0  0  0  0  0  0
  -13.4143  -26.7863  -35.4510 H   0  0  0  0  0  0  0  0  0  0  0  0
  -12.3227  -27.3075  -36.7467 H   0  0  0  0  0  0  0  0  0  0  0  0
  -17.4355  -24.9848  -37.9658 H   0  0  0  0  0  0  0  0  0  0  0  0
  -16.8785  -23.3631  -37.5167 H   0  0  0  0  0  0  0  0  0  0  0  0
  -13.0372  -25.4386  -38.0588 H   0  0  0  0  0  0  0  0  0  0  0  0
  -14.7865  -24.4591  -38.9245 H   0  0  0  0  0  0  0  0  0  0  0  0
  1 10  1  0  0  0  0
  1 11  1  0  0  0  0
  1 12  2  0  0  0  0
  2  4  1  0  0  0  0
  3  5  1  0  0  0  0
  4  6  1  0  0  0  0
  5  7  1  0  0  0  0
  6  8  1  0  0  0  0
  7  9  1  0  0  0  0
  8 10  1  0  0  0  0
  9 11  1  0  0  0  0
  2 13  1  0  0  0  0
  2 14  1  0  0  0  0
  2 15  1  0  0  0  0
  3 16  1  0  0  0  0
  3 17  1  0  0  0  0
  3 18  1  0  0  0  0
  4 19  1  0  0  0  0
  4 20  1  0  0  0  0
  5 21  1  0  0  0  0
  5 22  1  0  0  0  0
  6 23  1  0  0  0  0
  6 24  1  0  0  0  0
  7 25  1  0  0  0  0
  7 26  1  0  0  0  0
  8 27  1  0  0  0  0
  8 28  1  0  0  0  0
  9 29  1  0  0  0  0
  9 30  1  0  0  0  0
 10 31  1  0  0  0  0
 11 32  1  0  0  0  0
M  END
> <Name>
IA_165.cdx

> <SourceTag>
IA_165

> <Gold.Version>
5.2

> <Gold.Id.Protein>
6HGV|6HGV_protein|mol2

> <Gold.Goldscore.Fitness>
52.1938

> <Gold.Goldscore.Internal.Vdw>
-3.2665

> <Gold.Goldscore.Internal.Torsion>
-1.5958

> <Gold.Goldscore.External.Vdw>
37.3138

> <Gold.Goldscore.Internal.HBond>
0.0000

> <Gold.Goldscore.External.HBond>
2.0508

> <Gold.Goldscore.Internal.Correction>
-3.6988

> <Gold.Goldscore.Hbonds>
donor molecule, donor type, donor heavy atom, donor atom, acceptor molecule, acceptor atom, score
      L1  H    10    31       P1  1931  0.75
      L1  H    11    32       P1  1931  0.28

> <Gold.Goldscore.Internal.Vdw.Weighted>
-3.2665

> <Gold.Goldscore.Internal.Torsion.Weighted>
-1.5958

> <Gold.Goldscore.External.Vdw.Weighted>
51.3065

> <Gold.Goldscore.Internal.HBond.Weighted>
0.0000

> <Gold.Goldscore.External.HBond.Weighted>
2.0508

> <Gold.Goldscore.Internal.Correction.Weighted>
-3.6988

> <Gold.Protein.RotatedTorsions>
[ 3781 1176 1175 1172 ] final  172.83 input   60.00 | X-H torsion
[ 3847 1247 1246 1244 ] final  100.25 input   60.00 | X-H torsion
[ 4507 1931 1930 1928 ] final  149.11 input   60.00 | X-H torsion
[ 3677 1070 1069 1066 ] final -105.24 input   60.00 | X-H torsion
[ 3525  925  924  922 ] final  118.15 input   59.99 | X-H torsion
[ 4531 1957 1955 1953 ] final  149.96 input   60.00 | X-H torsion

> <Gold.Protein.ActiveResidues>
 PHE267  PRO268  MET310  ASP335  TRP336  MET339  TYR343  THR360  PRO361  ILE363 
 PRO371  SER374  ILE375  ASN378  PHE381  TYR383  GLN384  PHE387  LEU408  LEU417 
 MET419  LEU428  TYR466  MET469  ASN472  ASP496  VAL498  LEU499  MET503  HIS524 
 TRP525 

> <Gold.Protein.RotatedAtoms>
   -2.1328  -30.1951  -30.3570 H   0  0  0  0  0  0  0  0  0  0  0  0  # atno 3525 bound_to 925 
  -11.6598  -23.7161  -31.4322 H   0  0  0  0  0  0  0  0  0  0  0  0  # atno 3677 bound_to 1070
   -9.3045  -36.5786  -32.7641 H   0  0  0  0  0  0  0  0  0  0  0  0  # atno 3781 bound_to 1176
  -14.3987  -28.5664  -37.6275 H   0  0  0  0  0  0  0  0  0  0  0  0  # atno 3847 bound_to 1247
  -12.5889  -23.7847  -39.7792 H   0  0  0  0  0  0  0  0  0  0  0  0  # atno 4507 bound_to 1931
   -1.9037  -34.0236  -36.8966 H   0  0  0  0  0  0  0  0  0  0  0  0  # atno 4531 bound_to 1957
  -10.6749  -37.4497  -32.8714 LP  0  0  0  0  0  0  0  0  0  0  0  0  # atno 5205 bound_to 1176
  -10.1365  -36.6069  -34.1624 LP  0  0  0  0  0  0  0  0  0  0  0  0  # atno 5206 bound_to 1176
  -15.9218  -28.4750  -37.0620 LP  0  0  0  0  0  0  0  0  0  0  0  0  # atno 5215 bound_to 1247
  -15.2495  -27.1923  -37.8165 LP  0  0  0  0  0  0  0  0  0  0  0  0  # atno 5216 bound_to 1247
  -12.9405  -25.0652  -38.8385 LP  0  0  0  0  0  0  0  0  0  0  0  0  # atno 5217 bound_to 1931
  -13.6688  -24.8899  -40.2895 LP  0  0  0  0  0  0  0  0  0  0  0  0  # atno 5218 bound_to 1931
  -11.3915  -22.2671  -30.7418 LP  0  0  0  0  0  0  0  0  0  0  0  0  # atno 5224 bound_to 1070
  -12.8048  -23.0454  -30.4902 LP  0  0  0  0  0  0  0  0  0  0  0  0  # atno 5225 bound_to 1070

$$$$
IA_123.cdx|SeH_inactivess_minimized|sdf|24|dock3
  -GOLD-   4172119 33D 1   1.00000     0.00000

 40 41  0  0  0  0  0  0  0  0  1 V2000
   -4.4799  -30.2786  -35.1267 C   0  0  0  0  0  0  0  0  0  0  0  0
   -5.3005  -30.8106  -31.9102 C   0  0  0  0  0  0  0  0  0  0  0  0
   -5.8353  -29.9825  -34.9822 C   0  0  0  0  0  0  0  0  0  0  0  0
   -4.0757  -31.5889  -35.3828 C   0  0  0  0  0  0  0  0  0  0  0  0
   -6.6360  -31.1496  -32.1271 C   0  0  0  0  0  0  0  0  0  0  0  0
   -4.2876  -31.6968  -32.2766 C   0  0  0  0  0  0  0  0  0  0  0  0
   -6.7865  -30.9966  -35.0938 C   0  0  0  0  0  0  0  0  0  0  0  0
   -5.0269  -32.6030  -35.4943 C   0  0  0  0  0  0  0  0  0  0  0  0
   -6.9586  -32.3748  -32.7103 C   0  0  0  0  0  0  0  0  0  0  0  0
   -4.6102  -32.9221  -32.8598 C   0  0  0  0  0  0  0  0  0  0  0  0
   -6.3823  -32.3069  -35.3499 C   0  0  0  0  0  0  0  0  0  0  0  0
   -5.9457  -33.2611  -33.0767 C   0  0  0  0  0  0  0  0  0  0  0  0
   -7.1884  -34.5838  -34.7721 C   0  0  0  0  0  0  0  0  0  0  0  0
   -9.7959  -33.0979  -35.4686 C   0  0  0  0  0  0  0  0  0  0  0  0
   -5.7001  -35.8017  -31.6794 C   0  0  0  0  0  0  0  0  0  0  0  0
   -8.5605  -33.1615  -36.3007 C   0  0  0  0  0  0  0  0  0  0  0  0
   -5.6825  -35.7713  -33.1698 C   0  0  0  0  0  0  0  0  0  0  0  0
   -7.3686  -33.3580  -35.4656 N   0  0  0  0  0  0  0  0  0  0  0  0
   -6.2805  -34.5313  -33.6816 N   0  0  0  0  0  0  0  0  0  0  0  0
   -7.7784  -35.6208  -35.0945 O   0  0  0  0  0  0  0  0  0  0  0  0
   -3.7390  -29.4891  -35.0406 H   0  0  0  0  0  0  0  0  0  0  0  0
   -5.0488  -29.8562  -31.4568 H   0  0  0  0  0  0  0  0  0  0  0  0
   -6.1504  -28.9624  -34.7837 H   0  0  0  0  0  0  0  0  0  0  0  0
   -3.0202  -31.8190  -35.4962 H   0  0  0  0  0  0  0  0  0  0  0  0
   -7.4249  -30.4595  -31.8428 H   0  0  0  0  0  0  0  0  0  0  0  0
   -3.2477  -31.4320  -32.1084 H   0  0  0  0  0  0  0  0  0  0  0  0
   -7.8400  -30.7540  -34.9795 H   0  0  0  0  0  0  0  0  0  0  0  0
   -4.7002  -33.6205  -35.6942 H   0  0  0  0  0  0  0  0  0  0  0  0
   -8.0030  -32.6282  -32.8747 H   0  0  0  0  0  0  0  0  0  0  0  0
   -3.8123  -33.6049  -33.1414 H   0  0  0  0  0  0  0  0  0  0  0  0
   -9.7315  -32.2870  -34.7350 H   0  0  0  0  0  0  0  0  0  0  0  0
  -10.6815  -32.9482  -36.0956 H   0  0  0  0  0  0  0  0  0  0  0  0
   -9.9237  -34.0394  -34.9211 H   0  0  0  0  0  0  0  0  0  0  0  0
   -5.0338  -35.0375  -31.2649 H   0  0  0  0  0  0  0  0  0  0  0  0
   -6.7144  -35.6419  -31.2977 H   0  0  0  0  0  0  0  0  0  0  0  0
   -5.3547  -36.7800  -31.3238 H   0  0  0  0  0  0  0  0  0  0  0  0
   -8.4266  -32.2305  -36.8599 H   0  0  0  0  0  0  0  0  0  0  0  0
   -8.6121  -33.9936  -37.0089 H   0  0  0  0  0  0  0  0  0  0  0  0
   -6.2541  -36.6105  -33.5773 H   0  0  0  0  0  0  0  0  0  0  0  0
   -4.6571  -35.8271  -33.5469 H   0  0  0  0  0  0  0  0  0  0  0  0
  1  3  2  0  0  0  0
  1  4  1  0  0  0  0
  2  5  2  0  0  0  0
  2  6  1  0  0  0  0
  3  7  1  0  0  0  0
  4  8  2  0  0  0  0
  5  9  1  0  0  0  0
  6 10  2  0  0  0  0
  7 11  2  0  0  0  0
  8 11  1  0  0  0  0
  9 12  2  0  0  0  0
 10 12  1  0  0  0  0
 11 18  1  0  0  0  0
 12 19  1  0  0  0  0
 13 18  1  0  0  0  0
 13 19  1  0  0  0  0
 13 20  2  0  0  0  0
 14 16  1  0  0  0  0
 15 17  1  0  0  0  0
 16 18  1  0  0  0  0
 17 19  1  0  0  0  0
  1 21  1  0  0  0  0
  2 22  1  0  0  0  0
  3 23  1  0  0  0  0
  4 24  1  0  0  0  0
  5 25  1  0  0  0  0
  6 26  1  0  0  0  0
  7 27  1  0  0  0  0
  8 28  1  0  0  0  0
  9 29  1  0  0  0  0
 10 30  1  0  0  0  0
 14 31  1  0  0  0  0
 14 32  1  0  0  0  0
 14 33  1  0  0  0  0
 15 34  1  0  0  0  0
 15 35  1  0  0  0  0
 15 36  1  0  0  0  0
 16 37  1  0  0  0  0
 16 38  1  0  0  0  0
 17 39  1  0  0  0  0
 17 40  1  0  0  0  0
M  END
> <Name>
IA_123.cdx

> <SourceTag>
IA_123

> <Gold.Version>
5.2

> <Gold.Id.Protein>
6HGV|6HGV_protein|mol2

> <Gold.Goldscore.Fitness>
45.6515

> <Gold.Goldscore.Internal.Vdw>
-0.9762

> <Gold.Goldscore.Internal.Torsion>
-14.2785

> <Gold.Goldscore.External.Vdw>
33.7780

> <Gold.Goldscore.Internal.HBond>
0.0000

> <Gold.Goldscore.External.HBond>
0.2662

> <Gold.Goldscore.Internal.Correction>
-14.1953

> <Gold.Goldscore.Hbonds>
donor molecule, donor type, donor heavy atom, donor atom, acceptor molecule, acceptor atom, score
      P1  H  1176  3781       L1    20  0.13

> <Gold.Goldscore.Internal.Vdw.Weighted>
-0.9762

> <Gold.Goldscore.Internal.Torsion.Weighted>
-14.2785

> <Gold.Goldscore.External.Vdw.Weighted>
46.4447

> <Gold.Goldscore.Internal.HBond.Weighted>
0.0000

> <Gold.Goldscore.External.HBond.Weighted>
0.2662

> <Gold.Goldscore.Internal.Correction.Weighted>
-14.1953

> <Gold.Protein.RotatedTorsions>
[ 3781 1176 1175 1172 ] final -126.03 input   60.00 | X-H torsion
[ 3847 1247 1246 1244 ] final  137.11 input   60.00 | X-H torsion
[ 4507 1931 1930 1928 ] final -113.12 input   60.00 | X-H torsion
[ 3677 1070 1069 1066 ] final  123.84 input   60.00 | X-H torsion
[ 3525  925  924  922 ] final  -84.26 input   59.99 | X-H torsion
[ 4531 1957 1955 1953 ] final  118.56 input   60.00 | X-H torsion

> <Gold.Protein.ActiveResidues>
 PHE267  PRO268  MET310  ASP335  TRP336  MET339  TYR343  THR360  PRO361  ILE363 
 PRO371  SER374  ILE375  ASN378  PHE381  TYR383  GLN384  PHE387  LEU408  LEU417 
 MET419  LEU428  TYR466  MET469  ASN472  ASP496  VAL498  LEU499  MET503  HIS524 
 TRP525 

> <Gold.Protein.RotatedAtoms>
   -3.4994  -29.7021  -29.2332 H   0  0  0  0  0  0  0  0  0  0  0  0  # atno 3525 bound_to 925 
  -11.5290  -22.2135  -30.6407 H   0  0  0  0  0  0  0  0  0  0  0  0  # atno 3677 bound_to 1070
   -9.4127  -36.3109  -33.6716 H   0  0  0  0  0  0  0  0  0  0  0  0  # atno 3781 bound_to 1176
  -14.3254  -28.0280  -37.8622 H   0  0  0  0  0  0  0  0  0  0  0  0  # atno 3847 bound_to 1247
  -13.5417  -24.5867  -40.4417 H   0  0  0  0  0  0  0  0  0  0  0  0  # atno 4507 bound_to 1931
   -2.4012  -34.0405  -36.8023 H   0  0  0  0  0  0  0  0  0  0  0  0  # atno 4531 bound_to 1957
   -9.9224  -37.1371  -32.3656 LP  0  0  0  0  0  0  0  0  0  0  0  0  # atno 5205 bound_to 1176
  -10.7801  -37.1892  -33.7542 LP  0  0  0  0  0  0  0  0  0  0  0  0  # atno 5206 bound_to 1176
  -15.4782  -28.8726  -37.0839 LP  0  0  0  0  0  0  0  0  0  0  0  0  # atno 5215 bound_to 1247
  -15.7669  -27.3369  -37.5581 LP  0  0  0  0  0  0  0  0  0  0  0  0  # atno 5216 bound_to 1247
  -12.4637  -23.8756  -39.4517 LP  0  0  0  0  0  0  0  0  0  0  0  0  # atno 5217 bound_to 1931
  -13.1859  -25.2717  -39.0092 LP  0  0  0  0  0  0  0  0  0  0  0  0  # atno 5218 bound_to 1931
  -12.8186  -23.2036  -30.5736 LP  0  0  0  0  0  0  0  0  0  0  0  0  # atno 5224 bound_to 1070
  -11.5095  -23.6220  -31.4555 LP  0  0  0  0  0  0  0  0  0  0  0  0  # atno 5225 bound_to 1070

$$$$
IA_107.cdx|SeH_inactivess_minimized|sdf|9|dock9
  -GOLD-   4172118443D 1   1.00000     0.00000

 27 27  0  0  0  0  0  0  0  0  1 V2000
  -14.0436  -25.4941  -36.4095 C   0  0  0  0  0  0  0  0  0  0  0  0
  -10.2757  -27.3346  -33.9049 C   0  0  0  0  0  0  0  0  0  0  0  0
  -10.7478  -25.9574  -33.4462 C   0  0  0  0  0  0  0  0  0  0  0  0
  -11.0997  -27.8576  -35.0784 C   0  0  0  0  0  0  0  0  0  0  0  0
  -10.7824  -24.9598  -34.6048 C   0  0  0  0  0  0  0  0  0  0  0  0
  -11.1333  -26.8556  -36.2332 C   0  0  0  0  0  0  0  0  0  0  0  0
  -11.6056  -25.4618  -35.7985 C   0  0  0  0  0  0  0  0  0  0  0  0
  -16.5289  -25.5352  -36.5694 C   0  0  0  0  0  0  0  0  0  0  0  0
  -13.0291  -25.4931  -35.4554 N   0  0  0  0  0  0  0  0  0  0  0  0
  -15.3005  -25.5270  -35.8106 N   0  0  0  0  0  0  0  0  0  0  0  0
  -13.8555  -25.4697  -37.6251 O   0  0  0  0  0  0  0  0  0  0  0  0
   -9.2178  -27.2854  -34.1903 H   0  0  0  0  0  0  0  0  0  0  0  0
  -10.3460  -28.0411  -33.0672 H   0  0  0  0  0  0  0  0  0  0  0  0
  -11.7454  -26.0387  -33.0012 H   0  0  0  0  0  0  0  0  0  0  0  0
  -10.0769  -25.5829  -32.6638 H   0  0  0  0  0  0  0  0  0  0  0  0
  -10.6742  -28.8047  -35.4307 H   0  0  0  0  0  0  0  0  0  0  0  0
  -12.1217  -28.0695  -34.7459 H   0  0  0  0  0  0  0  0  0  0  0  0
  -11.1925  -23.9993  -34.2466 H   0  0  0  0  0  0  0  0  0  0  0  0
   -9.7507  -24.7397  -34.9269 H   0  0  0  0  0  0  0  0  0  0  0  0
  -10.1294  -26.7869  -36.6852 H   0  0  0  0  0  0  0  0  0  0  0  0
  -11.7920  -27.2406  -37.0312 H   0  0  0  0  0  0  0  0  0  0  0  0
  -11.5113  -24.7663  -36.6286 H   0  0  0  0  0  0  0  0  0  0  0  0
  -16.5397  -24.7012  -37.2758 H   0  0  0  0  0  0  0  0  0  0  0  0
  -17.3877  -25.4400  -35.8993 H   0  0  0  0  0  0  0  0  0  0  0  0
  -16.6221  -26.4706  -37.1277 H   0  0  0  0  0  0  0  0  0  0  0  0
  -13.2890  -25.5152  -34.4739 H   0  0  0  0  0  0  0  0  0  0  0  0
  -15.3584  -25.5926  -34.7992 H   0  0  0  0  0  0  0  0  0  0  0  0
  1  9  1  0  0  0  0
  1 10  1  0  0  0  0
  1 11  2  0  0  0  0
  2  3  1  0  0  0  0
  2  4  1  0  0  0  0
  3  5  1  0  0  0  0
  4  6  1  0  0  0  0
  5  7  1  0  0  0  0
  6  7  1  0  0  0  0
  7  9  1  0  0  0  0
  8 10  1  0  0  0  0
  2 12  1  0  0  0  0
  2 13  1  0  0  0  0
  3 14  1  0  0  0  0
  3 15  1  0  0  0  0
  4 16  1  0  0  0  0
  4 17  1  0  0  0  0
  5 18  1  0  0  0  0
  5 19  1  0  0  0  0
  6 20  1  0  0  0  0
  6 21  1  0  0  0  0
  7 22  1  0  0  0  0
  8 23  1  0  0  0  0
  8 24  1  0  0  0  0
  8 25  1  0  0  0  0
  9 26  1  0  0  0  0
 10 27  1  0  0  0  0
M  END
> <Name>
IA_107.cdx

> <SourceTag>
IA_107

> <Gold.Version>
5.2

> <Gold.Id.Protein>
6HGV|6HGV_protein|mol2

> <Gold.Goldscore.Fitness>
39.9148

> <Gold.Goldscore.Internal.Vdw>
-0.9766

> <Gold.Goldscore.Internal.Torsion>
-1.1802

> <Gold.Goldscore.External.Vdw>
28.2039

> <Gold.Goldscore.Internal.HBond>
0.0000

> <Gold.Goldscore.External.HBond>
1.2953

> <Gold.Goldscore.Internal.Correction>
-1.9959

> <Gold.Goldscore.Hbonds>
donor molecule, donor type, donor heavy atom, donor atom, acceptor molecule, acceptor atom, score
      P1  H  1931  4507       L1    11  0.65

> <Gold.Goldscore.Internal.Vdw.Weighted>
-0.9766

> <Gold.Goldscore.Internal.Torsion.Weighted>
-1.1802

> <Gold.Goldscore.External.Vdw.Weighted>
38.7804

> <Gold.Goldscore.Internal.HBond.Weighted>
0.0000

> <Gold.Goldscore.External.HBond.Weighted>
1.2953

> <Gold.Goldscore.Internal.Correction.Weighted>
-1.9959

> <Gold.Protein.RotatedTorsions>
[ 3781 1176 1175 1172 ] final   50.29 input   60.00 | X-H torsion
[ 3847 1247 1246 1244 ] final  139.88 input   60.00 | X-H torsion
[ 4507 1931 1930 1928 ] final   20.40 input   60.00 | X-H torsion
[ 3677 1070 1069 1066 ] final  -62.25 input   60.00 | X-H torsion
[ 3525  925  924  922 ] final -139.38 input   59.99 | X-H torsion
[ 4531 1957 1955 1953 ] final  104.59 input   60.00 | X-H torsion

> <Gold.Protein.ActiveResidues>
 PHE267  PRO268  MET310  ASP335  TRP336  MET339  TYR343  THR360  PRO361  ILE363 
 PRO371  SER374  ILE375  ASN378  PHE381  TYR383  GLN384  PHE387  LEU408  LEU417 
 MET419  LEU428  TYR466  MET469  ASN472  ASP496  VAL498  LEU499  MET503  HIS524 
 TRP525 

> <Gold.Protein.RotatedAtoms>
   -2.7335  -30.0543  -29.0338 H   0  0  0  0  0  0  0  0  0  0  0  0  # atno 3525 bound_to 925 
  -12.2905  -23.8312  -31.1877 H   0  0  0  0  0  0  0  0  0  0  0  0  # atno 3677 bound_to 1070
  -10.6898  -37.4478  -32.9109 H   0  0  0  0  0  0  0  0  0  0  0  0  # atno 3781 bound_to 1176
  -14.3344  -27.9854  -37.8750 H   0  0  0  0  0  0  0  0  0  0  0  0  # atno 3847 bound_to 1247
  -13.0349  -25.1539  -38.8986 H   0  0  0  0  0  0  0  0  0  0  0  0  # atno 4507 bound_to 1931
   -2.6101  -33.9597  -36.7612 H   0  0  0  0  0  0  0  0  0  0  0  0  # atno 4531 bound_to 1957
  -10.1012  -36.5848  -34.1586 LP  0  0  0  0  0  0  0  0  0  0  0  0  # atno 5205 bound_to 1176
   -9.3152  -36.5965  -32.7273 LP  0  0  0  0  0  0  0  0  0  0  0  0  # atno 5206 bound_to 1176
  -15.4373  -28.8910  -37.0930 LP  0  0  0  0  0  0  0  0  0  0  0  0  # atno 5215 bound_to 1247
  -15.7987  -27.3614  -37.5363 LP  0  0  0  0  0  0  0  0  0  0  0  0  # atno 5216 bound_to 1247
  -13.6309  -24.7737  -40.3642 LP  0  0  0  0  0  0  0  0  0  0  0  0  # atno 5217 bound_to 1931
  -12.5291  -23.8024  -39.6507 LP  0  0  0  0  0  0  0  0  0  0  0  0  # atno 5218 bound_to 1931
  -11.0907  -22.7324  -31.1547 LP  0  0  0  0  0  0  0  0  0  0  0  0  # atno 5224 bound_to 1070
  -12.4705  -22.4641  -30.3236 LP  0  0  0  0  0  0  0  0  0  0  0  0  # atno 5225 bound_to 1070

$$$$
IA_51.cdx|SeH_inactivess_minimized|sdf|136|dock3
  -GOLD-   4172121513D 1   1.00000     0.00000

  8  7  0  0  0  0  0  0  0  0  1 V2000
  -11.8210  -25.6854  -36.5945 C   0  0  0  0  0  0  0  0  0  0  0  0
  -12.2474  -24.5899  -37.3167 N   0  0  0  0  0  0  0  0  0  0  0  0
  -11.4680  -25.3647  -35.3000 N   0  0  0  0  0  0  0  0  0  0  0  0
  -11.7622  -26.8238  -37.0549 O   0  0  0  0  0  0  0  0  0  0  0  0
  -12.5322  -24.7108  -38.2827 H   0  0  0  0  0  0  0  0  0  0  0  0
  -12.2814  -23.6659  -36.8997 H   0  0  0  0  0  0  0  0  0  0  0  0
  -11.1394  -26.0979  -34.6807 H   0  0  0  0  0  0  0  0  0  0  0  0
  -11.5289  -24.4137  -34.9524 H   0  0  0  0  0  0  0  0  0  0  0  0
  1  2  1  0  0  0  0
  1  3  1  0  0  0  0
  1  4  2  0  0  0  0
  2  5  1  0  0  0  0
  2  6  1  0  0  0  0
  3  7  1  0  0  0  0
  3  8  1  0  0  0  0
M  END
> <Name>
IA_51.cdx

> <SourceTag>
IA_51

> <Gold.Version>
5.2

> <Gold.Id.Protein>
6HGV|6HGV_protein|mol2

> <Gold.Goldscore.Fitness>
21.1644

> <Gold.Goldscore.Internal.Vdw>
-0.0000

> <Gold.Goldscore.Internal.Torsion>
-0.0000

> <Gold.Goldscore.External.Vdw>
9.9764

> <Gold.Goldscore.Internal.HBond>
0.0000

> <Gold.Goldscore.External.HBond>
7.4469

> <Gold.Goldscore.Internal.Correction>
0.0000

> <Gold.Goldscore.Hbonds>
donor molecule, donor type, donor heavy atom, donor atom, acceptor molecule, acceptor atom, score
      L1  H     2     5       P1  1931  1.00
      L1  H     2     6       P1   854  0.91

> <Gold.Goldscore.Internal.Vdw.Weighted>
-0.0000

> <Gold.Goldscore.Internal.Torsion.Weighted>
-0.0000

> <Gold.Goldscore.External.Vdw.Weighted>
13.7175

> <Gold.Goldscore.Internal.HBond.Weighted>
0.0000

> <Gold.Goldscore.External.HBond.Weighted>
7.4469

> <Gold.Goldscore.Internal.Correction.Weighted>
0.0000

> <Gold.Protein.RotatedTorsions>
[ 3781 1176 1175 1172 ] final -154.93 input   60.00 | X-H torsion
[ 3847 1247 1246 1244 ] final  148.24 input   60.00 | X-H torsion
[ 4507 1931 1930 1928 ] final -119.83 input   60.00 | X-H torsion
[ 3677 1070 1069 1066 ] final -105.46 input   60.00 | X-H torsion
[ 3525  925  924  922 ] final  164.16 input   59.99 | X-H torsion
[ 4531 1957 1955 1953 ] final  128.33 input   60.00 | X-H torsion

> <Gold.Protein.ActiveResidues>
 PHE267  PRO268  MET310  ASP335  TRP336  MET339  TYR343  THR360  PRO361  ILE363 
 PRO371  SER374  ILE375  ASN378  PHE381  TYR383  GLN384  PHE387  LEU408  LEU417 
 MET419  LEU428  TYR466  MET469  ASN472  ASP496  VAL498  LEU499  MET503  HIS524 
 TRP525 

> <Gold.Protein.RotatedAtoms>
   -2.1143  -30.2698  -29.6291 H   0  0  0  0  0  0  0  0  0  0  0  0  # atno 3525 bound_to 925 
  -11.6567  -23.7144  -31.4327 H   0  0  0  0  0  0  0  0  0  0  0  0  # atno 3677 bound_to 1070
   -9.2526  -36.3672  -33.2362 H   0  0  0  0  0  0  0  0  0  0  0  0  # atno 3781 bound_to 1176
  -14.3736  -27.8590  -37.9080 H   0  0  0  0  0  0  0  0  0  0  0  0  # atno 3847 bound_to 1247
  -13.4901  -24.4932  -40.4658 H   0  0  0  0  0  0  0  0  0  0  0  0  # atno 4507 bound_to 1931
   -2.2465  -34.0652  -36.8321 H   0  0  0  0  0  0  0  0  0  0  0  0  # atno 4531 bound_to 1957
  -10.3192  -37.3514  -32.5001 LP  0  0  0  0  0  0  0  0  0  0  0  0  # atno 5205 bound_to 1176
  -10.5444  -36.9181  -34.0583 LP  0  0  0  0  0  0  0  0  0  0  0  0  # atno 5206 bound_to 1176
  -15.3113  -28.9346  -37.1258 LP  0  0  0  0  0  0  0  0  0  0  0  0  # atno 5215 bound_to 1247
  -15.8853  -27.4451  -37.4702 LP  0  0  0  0  0  0  0  0  0  0  0  0  # atno 5216 bound_to 1247
  -12.4435  -23.9267  -39.3560 LP  0  0  0  0  0  0  0  0  0  0  0  0  # atno 5217 bound_to 1931
  -13.2581  -25.3149  -39.0805 LP  0  0  0  0  0  0  0  0  0  0  0  0  # atno 5218 bound_to 1931
  -11.3940  -22.2656  -30.7397 LP  0  0  0  0  0  0  0  0  0  0  0  0  # atno 5224 bound_to 1070
  -12.8054  -23.0486  -30.4918 LP  0  0  0  0  0  0  0  0  0  0  0  0  # atno 5225 bound_to 1070

$$$$
IA_128.cdx|SeH_inactivess_minimized|sdf|29|dock5
  -GOLD-   4172119 93D 1   1.00000     0.00000

 38 38  0  0  0  0  0  0  0  0  1 V2000
  -10.5418  -26.4585  -33.9139 C   0  0  0  0  0  0  0  0  0  0  0  0
  -12.1016  -27.8748  -35.0966 C   0  0  0  0  0  0  0  0  0  0  0  0
  -10.8510  -25.4024  -34.7710 C   0  0  0  0  0  0  0  0  0  0  0  0
  -12.4107  -26.8186  -35.9536 C   0  0  0  0  0  0  0  0  0  0  0  0
  -11.1671  -27.6948  -34.0767 C   0  0  0  0  0  0  0  0  0  0  0  0
  -11.7855  -25.5824  -35.7908 C   0  0  0  0  0  0  0  0  0  0  0  0
  -10.2622  -29.9579  -33.7004 C   0  0  0  0  0  0  0  0  0  0  0  0
  -11.1320  -28.6759  -31.7633 C   0  0  0  0  0  0  0  0  0  0  0  0
   -9.1905  -28.5717  -35.5163 C   0  0  0  0  0  0  0  0  0  0  0  0
   -5.6999  -31.0947  -35.3150 C   0  0  0  0  0  0  0  0  0  0  0  0
   -8.3074  -33.9643  -35.9099 C   0  0  0  0  0  0  0  0  0  0  0  0
   -9.3619  -31.0214  -35.7739 C   0  0  0  0  0  0  0  0  0  0  0  0
   -8.0024  -31.6477  -35.4600 C   0  0  0  0  0  0  0  0  0  0  0  0
  -10.8515  -28.7736  -33.2008 N   0  0  0  0  0  0  0  0  0  0  0  0
   -9.6235  -29.8612  -34.9620 N   0  0  0  0  0  0  0  0  0  0  0  0
  -10.3215  -31.0334  -33.0919 O   0  0  0  0  0  0  0  0  0  0  0  0
   -7.0121  -30.6165  -35.5790 O   0  0  0  0  0  0  0  0  0  0  0  0
   -7.7397  -32.7378  -36.3485 O   0  0  0  0  0  0  0  0  0  0  0  0
  -12.1669  -24.2789  -36.8483 Cl  0  0  0  0  0  0  0  0  0  0  0  0
   -9.8119  -26.3073  -33.1228 H   0  0  0  0  0  0  0  0  0  0  0  0
  -12.5947  -28.8338  -35.2324 H   0  0  0  0  0  0  0  0  0  0  0  0
  -10.3564  -24.4445  -34.6325 H   0  0  0  0  0  0  0  0  0  0  0  0
  -13.1406  -26.9730  -36.7440 H   0  0  0  0  0  0  0  0  0  0  0  0
  -12.0335  -29.2431  -31.5171 H   0  0  0  0  0  0  0  0  0  0  0  0
  -11.2846  -27.6314  -31.4782 H   0  0  0  0  0  0  0  0  0  0  0  0
  -10.2947  -29.0779  -31.1866 H   0  0  0  0  0  0  0  0  0  0  0  0
   -8.8791  -27.9019  -34.7106 H   0  0  0  0  0  0  0  0  0  0  0  0
  -10.0103  -28.1025  -36.0669 H   0  0  0  0  0  0  0  0  0  0  0  0
   -8.3484  -28.7171  -36.1983 H   0  0  0  0  0  0  0  0  0  0  0  0
   -5.6473  -31.4695  -34.2899 H   0  0  0  0  0  0  0  0  0  0  0  0
   -4.9806  -30.2840  -35.4554 H   0  0  0  0  0  0  0  0  0  0  0  0
   -5.4709  -31.9065  -36.0095 H   0  0  0  0  0  0  0  0  0  0  0  0
   -9.3934  -33.8616  -35.8451 H   0  0  0  0  0  0  0  0  0  0  0  0
   -7.8968  -34.2278  -34.9319 H   0  0  0  0  0  0  0  0  0  0  0  0
   -8.0601  -34.7481  -36.6298 H   0  0  0  0  0  0  0  0  0  0  0  0
   -9.4233  -30.6963  -36.8162 H   0  0  0  0  0  0  0  0  0  0  0  0
  -10.1699  -31.7330  -35.5764 H   0  0  0  0  0  0  0  0  0  0  0  0
   -8.0066  -31.9956  -34.4184 H   0  0  0  0  0  0  0  0  0  0  0  0
  1  3  1  0  0  0  0
  1  5  2  0  0  0  0
  2  4  2  0  0  0  0
  2  5  1  0  0  0  0
  3  6  2  0  0  0  0
  4  6  1  0  0  0  0
  5 14  1  0  0  0  0
  6 19  1  0  0  0  0
  7 14  1  0  0  0  0
  7 15  1  0  0  0  0
  7 16  2  0  0  0  0
  8 14  1  0  0  0  0
  9 15  1  0  0  0  0
 10 17  1  0  0  0  0
 11 18  1  0  0  0  0
 12 13  1  0  0  0  0
 12 15  1  0  0  0  0
 13 17  1  0  0  0  0
 13 18  1  0  0  0  0
  1 20  1  0  0  0  0
  2 21  1  0  0  0  0
  3 22  1  0  0  0  0
  4 23  1  0  0  0  0
  8 24  1  0  0  0  0
  8 25  1  0  0  0  0
  8 26  1  0  0  0  0
  9 27  1  0  0  0  0
  9 28  1  0  0  0  0
  9 29  1  0  0  0  0
 10 30  1  0  0  0  0
 10 31  1  0  0  0  0
 10 32  1  0  0  0  0
 11 33  1  0  0  0  0
 11 34  1  0  0  0  0
 11 35  1  0  0  0  0
 12 36  1  0  0  0  0
 12 37  1  0  0  0  0
 13 38  1  0  0  0  0
M  END
> <Name>
IA_128.cdx

> <SourceTag>
IA_128

> <Gold.Version>
5.2

> <Gold.Id.Protein>
6HGV|6HGV_protein|mol2

> <Gold.Goldscore.Fitness>
49.6053

> <Gold.Goldscore.Internal.Vdw>
-10.6572

> <Gold.Goldscore.Internal.Torsion>
-14.1930

> <Gold.Goldscore.External.Vdw>
36.2716

> <Gold.Goldscore.Internal.HBond>
0.0000

> <Gold.Goldscore.External.HBond>
0.0000

> <Gold.Goldscore.Internal.Correction>
-24.5820

> <Gold.Goldscore.Internal.Vdw.Weighted>
-10.6572

> <Gold.Goldscore.Internal.Torsion.Weighted>
-14.1930

> <Gold.Goldscore.External.Vdw.Weighted>
49.8735

> <Gold.Goldscore.Internal.HBond.Weighted>
0.0000

> <Gold.Goldscore.External.HBond.Weighted>
0.0000

> <Gold.Goldscore.Internal.Correction.Weighted>
-24.5820

> <Gold.Protein.RotatedTorsions>
[ 3781 1176 1175 1172 ] final -157.66 input   60.00 | X-H torsion
[ 3847 1247 1246 1244 ] final -127.25 input   60.00 | X-H torsion
[ 4507 1931 1930 1928 ] final  132.83 input   60.00 | X-H torsion
[ 3677 1070 1069 1066 ] final  -88.42 input   60.00 | X-H torsion
[ 3525  925  924  922 ] final  156.18 input   59.99 | X-H torsion
[ 4531 1957 1955 1953 ] final   -2.19 input   60.00 | X-H torsion

> <Gold.Protein.ActiveResidues>
 PHE267  PRO268  MET310  ASP335  TRP336  MET339  TYR343  THR360  PRO361  ILE363 
 PRO371  SER374  ILE375  ASN378  PHE381  TYR383  GLN384  PHE387  LEU408  LEU417 
 MET419  LEU428  TYR466  MET469  ASN472  ASP496  VAL498  LEU499  MET503  HIS524 
 TRP525 

> <Gold.Protein.RotatedAtoms>
   -2.0785  -30.2739  -29.7545 H   0  0  0  0  0  0  0  0  0  0  0  0  # atno 3525 bound_to 925 
  -11.9068  -23.8151  -31.3671 H   0  0  0  0  0  0  0  0  0  0  0  0  # atno 3677 bound_to 1070
   -9.2474  -36.3796  -33.1937 H   0  0  0  0  0  0  0  0  0  0  0  0  # atno 3781 bound_to 1176
  -15.4382  -27.2085  -37.7389 H   0  0  0  0  0  0  0  0  0  0  0  0  # atno 3847 bound_to 1247
  -12.4909  -23.8447  -39.5404 H   0  0  0  0  0  0  0  0  0  0  0  0  # atno 4507 bound_to 1931
   -2.8326  -32.4747  -36.6932 H   0  0  0  0  0  0  0  0  0  0  0  0  # atno 4531 bound_to 1957
  -10.3545  -37.3662  -32.5235 LP  0  0  0  0  0  0  0  0  0  0  0  0  # atno 5205 bound_to 1176
  -10.5144  -36.8908  -34.0776 LP  0  0  0  0  0  0  0  0  0  0  0  0  # atno 5206 bound_to 1176
  -14.3271  -28.3972  -37.7176 LP  0  0  0  0  0  0  0  0  0  0  0  0  # atno 5215 bound_to 1247
  -15.7973  -28.6376  -37.0486 LP  0  0  0  0  0  0  0  0  0  0  0  0  # atno 5216 bound_to 1247
  -13.1204  -25.2255  -38.9530 LP  0  0  0  0  0  0  0  0  0  0  0  0  # atno 5217 bound_to 1931
  -13.5875  -24.6691  -40.4155 LP  0  0  0  0  0  0  0  0  0  0  0  0  # atno 5218 bound_to 1931
  -11.2239  -22.4116  -30.9065 LP  0  0  0  0  0  0  0  0  0  0  0  0  # atno 5224 bound_to 1070
  -12.7237  -22.8012  -30.3910 LP  0  0  0  0  0  0  0  0  0  0  0  0  # atno 5225 bound_to 1070

$$$$
IA_148.cdx|SeH_inactivess_minimized|sdf|49|dock10
  -GOLD-   4172119413D 1   1.00000     0.00000

 44 46  0  0  0  0  0  0  0  0  1 V2000
  -17.9566  -22.6487  -39.7389 C   0  0  0  0  0  0  0  0  0  0  0  0
   -8.7562  -31.9554  -36.0709 C   0  0  0  0  0  0  0  0  0  0  0  0
   -8.9469  -30.6715  -35.5601 C   0  0  0  0  0  0  0  0  0  0  0  0
  -16.7992  -23.3766  -40.0148 C   0  0  0  0  0  0  0  0  0  0  0  0
  -18.6199  -22.8270  -38.5250 C   0  0  0  0  0  0  0  0  0  0  0  0
   -8.0397  -32.7157  -33.8924 C   0  0  0  0  0  0  0  0  0  0  0  0
  -12.2275  -28.1259  -34.8706 C   0  0  0  0  0  0  0  0  0  0  0  0
   -9.6169  -27.1438  -34.8142 C   0  0  0  0  0  0  0  0  0  0  0  0
  -16.9686  -24.4615  -37.8627 C   0  0  0  0  0  0  0  0  0  0  0  0
   -8.3027  -32.9775  -35.2370 C   0  0  0  0  0  0  0  0  0  0  0  0
  -11.9435  -26.8693  -35.4052 C   0  0  0  0  0  0  0  0  0  0  0  0
   -8.6840  -30.4097  -34.2155 C   0  0  0  0  0  0  0  0  0  0  0  0
   -9.9010  -28.4004  -34.2796 C   0  0  0  0  0  0  0  0  0  0  0  0
  -16.3052  -24.2830  -39.0767 C   0  0  0  0  0  0  0  0  0  0  0  0
  -18.1260  -23.7334  -37.5868 C   0  0  0  0  0  0  0  0  0  0  0  0
  -10.6382  -26.3783  -35.3771 C   0  0  0  0  0  0  0  0  0  0  0  0
   -8.2304  -31.4317  -33.3816 C   0  0  0  0  0  0  0  0  0  0  0  0
  -11.2062  -28.8915  -34.3077 C   0  0  0  0  0  0  0  0  0  0  0  0
  -16.4533  -25.4066  -36.8842 C   0  0  0  0  0  0  0  0  0  0  0  0
  -14.3570  -26.2077  -35.7522 C   0  0  0  0  0  0  0  0  0  0  0  0
   -8.0987  -34.3500  -35.7838 C   0  0  0  0  0  0  0  0  0  0  0  0
  -12.9805  -26.0947  -35.9753 N   0  0  0  0  0  0  0  0  0  0  0  0
  -15.0621  -25.4013  -36.6691 N   0  0  0  0  0  0  0  0  0  0  0  0
  -17.2286  -26.1528  -36.2619 O   0  0  0  0  0  0  0  0  0  0  0  0
  -14.9072  -26.8975  -34.8975 O   0  0  0  0  0  0  0  0  0  0  0  0
   -8.8833  -29.1268  -33.7365 O   0  0  0  0  0  0  0  0  0  0  0  0
  -15.1921  -24.9776  -39.3520 F   0  0  0  0  0  0  0  0  0  0  0  0
  -18.7712  -23.8972  -36.4232 F   0  0  0  0  0  0  0  0  0  0  0  0
  -10.3537  -25.1717  -35.8875 F   0  0  0  0  0  0  0  0  0  0  0  0
   -9.2021  -35.1490  -35.6832 F   0  0  0  0  0  0  0  0  0  0  0  0
   -7.7667  -34.3669  -37.1087 F   0  0  0  0  0  0  0  0  0  0  0  0
   -7.0983  -35.0256  -35.1471 F   0  0  0  0  0  0  0  0  0  0  0  0
   -7.8981  -31.1358  -31.7147 Cl  0  0  0  0  0  0  0  0  0  0  0  0
  -11.5854  -30.4418  -33.6529 Cl  0  0  0  0  0  0  0  0  0  0  0  0
  -18.3410  -21.9426  -40.4693 H   0  0  0  0  0  0  0  0  0  0  0  0
   -8.9632  -32.1503  -37.1198 H   0  0  0  0  0  0  0  0  0  0  0  0
   -9.3006  -29.8803  -36.2158 H   0  0  0  0  0  0  0  0  0  0  0  0
  -16.2826  -23.2380  -40.9601 H   0  0  0  0  0  0  0  0  0  0  0  0
  -19.5212  -22.2605  -38.3099 H   0  0  0  0  0  0  0  0  0  0  0  0
   -7.6862  -33.5174  -33.2477 H   0  0  0  0  0  0  0  0  0  0  0  0
  -13.2472  -28.5045  -34.8940 H   0  0  0  0  0  0  0  0  0  0  0  0
   -8.6025  -26.7548  -34.7959 H   0  0  0  0  0  0  0  0  0  0  0  0
  -12.6835  -25.3706  -36.6245 H   0  0  0  0  0  0  0  0  0  0  0  0
  -14.5136  -24.7547  -37.2280 H   0  0  0  0  0  0  0  0  0  0  0  0
  1  4  2  0  0  0  0
  1  5  1  0  0  0  0
  2  3  1  0  0  0  0
  2 10  2  0  0  0  0
  3 12  2  0  0  0  0
  4 14  1  0  0  0  0
  5 15  2  0  0  0  0
  6 10  1  0  0  0  0
  6 17  2  0  0  0  0
  7 11  2  0  0  0  0
  7 18  1  0  0  0  0
  8 13  1  0  0  0  0
  8 16  2  0  0  0  0
  9 14  2  0  0  0  0
  9 15  1  0  0  0  0
  9 19  1  0  0  0  0
 10 21  1  0  0  0  0
 11 16  1  0  0  0  0
 11 22  1  0  0  0  0
 12 17  1  0  0  0  0
 12 26  1  0  0  0  0
 13 18  2  0  0  0  0
 13 26  1  0  0  0  0
 14 27  1  0  0  0  0
 15 28  1  0  0  0  0
 16 29  1  0  0  0  0
 17 33  1  0  0  0  0
 18 34  1  0  0  0  0
 19 23  1  0  0  0  0
 19 24  2  0  0  0  0
 20 22  1  0  0  0  0
 20 23  1  0  0  0  0
 20 25  2  0  0  0  0
 21 30  1  0  0  0  0
 21 31  1  0  0  0  0
 21 32  1  0  0  0  0
  1 35  1  0  0  0  0
  2 36  1  0  0  0  0
  3 37  1  0  0  0  0
  4 38  1  0  0  0  0
  5 39  1  0  0  0  0
  6 40  1  0  0  0  0
  7 41  1  0  0  0  0
  8 42  1  0  0  0  0
 22 43  1  0  0  0  0
 23 44  1  0  0  0  0
M  END
> <Name>
IA_148.cdx

> <SourceTag>
IA_148

> <Gold.Version>
5.2

> <Gold.Id.Protein>
6HGV|6HGV_protein|mol2

> <Gold.Goldscore.Fitness>
61.3676

> <Gold.Goldscore.Internal.Vdw>
-5.7033

> <Gold.Goldscore.Internal.Torsion>
-7.9247

> <Gold.Goldscore.External.Vdw>
45.5008

> <Gold.Goldscore.Internal.HBond>
0.0000

> <Gold.Goldscore.External.HBond>
0.4402

> <Gold.Goldscore.Internal.Correction>
-11.9918

> <Gold.Goldscore.Hbonds>
donor molecule, donor type, donor heavy atom, donor atom, acceptor molecule, acceptor atom, score
      P1  H  1247  3847       L1    24  0.22

> <Gold.Goldscore.Internal.Vdw.Weighted>
-5.7033

> <Gold.Goldscore.Internal.Torsion.Weighted>
-7.9247

> <Gold.Goldscore.External.Vdw.Weighted>
62.5636

> <Gold.Goldscore.Internal.HBond.Weighted>
0.0000

> <Gold.Goldscore.External.HBond.Weighted>
0.4402

> <Gold.Goldscore.Internal.Correction.Weighted>
-11.9918

> <Gold.Protein.RotatedTorsions>
[ 3781 1176 1175 1172 ] final -172.04 input   60.00 | X-H torsion
[ 3847 1247 1246 1244 ] final  -66.27 input   60.00 | X-H torsion
[ 4507 1931 1930 1928 ] final   89.01 input   60.00 | X-H torsion
[ 3677 1070 1069 1066 ] final  156.72 input   60.00 | X-H torsion
[ 3525  925  924  922 ] final  -14.20 input   59.99 | X-H torsion
[ 4531 1957 1955 1953 ] final   93.12 input   60.00 | X-H torsion

> <Gold.Protein.ActiveResidues>
 PHE267  PRO268  MET310  ASP335  TRP336  MET339  TYR343  THR360  PRO361  ILE363 
 PRO371  SER374  ILE375  ASN378  PHE381  TYR383  GLN384  PHE387  LEU408  LEU417 
 MET419  LEU428  TYR466  MET469  ASN472  ASP496  VAL498  LEU499  MET503  HIS524 
 TRP525 

> <Gold.Protein.RotatedAtoms>
   -3.7038  -29.5180  -30.2722 H   0  0  0  0  0  0  0  0  0  0  0  0  # atno 3525 bound_to 925 
  -11.1891  -22.4715  -30.9548 H   0  0  0  0  0  0  0  0  0  0  0  0  # atno 3677 bound_to 1070
   -9.2493  -36.4629  -32.9746 H   0  0  0  0  0  0  0  0  0  0  0  0  # atno 3781 bound_to 1176
  -16.0468  -27.7776  -37.2824 H   0  0  0  0  0  0  0  0  0  0  0  0  # atno 3847 bound_to 1247
  -12.4651  -24.2700  -38.9867 H   0  0  0  0  0  0  0  0  0  0  0  0  # atno 4507 bound_to 1931
   -2.7631  -33.8565  -36.7303 H   0  0  0  0  0  0  0  0  0  0  0  0  # atno 4531 bound_to 1957
  -10.5268  -37.4249  -32.6737 LP  0  0  0  0  0  0  0  0  0  0  0  0  # atno 5205 bound_to 1176
  -10.3401  -36.7481  -34.1480 LP  0  0  0  0  0  0  0  0  0  0  0  0  # atno 5206 bound_to 1176
  -14.5896  -27.5081  -37.9547 LP  0  0  0  0  0  0  0  0  0  0  0  0  # atno 5215 bound_to 1247
  -14.9220  -28.9535  -37.2713 LP  0  0  0  0  0  0  0  0  0  0  0  0  # atno 5216 bound_to 1247
  -13.5445  -25.3772  -39.4937 LP  0  0  0  0  0  0  0  0  0  0  0  0  # atno 5217 bound_to 1931
  -13.1895  -24.0891  -40.4325 LP  0  0  0  0  0  0  0  0  0  0  0  0  # atno 5218 bound_to 1931
  -12.6852  -22.7292  -30.3690 LP  0  0  0  0  0  0  0  0  0  0  0  0  # atno 5224 bound_to 1070
  -11.9851  -23.8365  -31.3438 LP  0  0  0  0  0  0  0  0  0  0  0  0  # atno 5225 bound_to 1070

$$$$
IA_168.cdx|SeH_inactivess_minimized|sdf|70|dock3
  -GOLD-   4172120 83D 1   1.00000     0.00000

 34 35  0  0  0  0  0  0  0  0  1 V2000
  -19.3258  -24.1884  -38.5072 C   0  0  0  0  0  0  0  0  0  0  0  0
  -10.4278  -26.5797  -33.6666 C   0  0  0  0  0  0  0  0  0  0  0  0
  -18.9045  -25.4444  -38.0707 C   0  0  0  0  0  0  0  0  0  0  0  0
  -10.3580  -25.3208  -34.2630 C   0  0  0  0  0  0  0  0  0  0  0  0
  -18.4006  -23.1552  -38.6559 C   0  0  0  0  0  0  0  0  0  0  0  0
  -11.4446  -27.4652  -34.0237 C   0  0  0  0  0  0  0  0  0  0  0  0
  -17.5581  -25.6672  -37.7826 C   0  0  0  0  0  0  0  0  0  0  0  0
  -11.3051  -24.9472  -35.2164 C   0  0  0  0  0  0  0  0  0  0  0  0
  -17.0541  -23.3780  -38.3679 C   0  0  0  0  0  0  0  0  0  0  0  0
  -12.3918  -27.0917  -34.9770 C   0  0  0  0  0  0  0  0  0  0  0  0
  -16.6328  -24.6339  -37.9313 C   0  0  0  0  0  0  0  0  0  0  0  0
  -12.3221  -25.8327  -35.5735 C   0  0  0  0  0  0  0  0  0  0  0  0
  -14.6493  -25.2984  -36.4657 C   0  0  0  0  0  0  0  0  0  0  0  0
  -16.0852  -22.2528  -38.5362 C   0  0  0  0  0  0  0  0  0  0  0  0
  -13.4700  -28.0607  -35.3400 C   0  0  0  0  0  0  0  0  0  0  0  0
  -15.2886  -24.8768  -37.6376 N   0  0  0  0  0  0  0  0  0  0  0  0
  -13.2750  -25.4344  -36.5442 N   0  0  0  0  0  0  0  0  0  0  0  0
  -15.6290  -25.7215  -35.1612 S   0  0  0  0  0  0  0  0  0  0  0  0
  -20.3741  -24.0145  -38.7310 H   0  0  0  0  0  0  0  0  0  0  0  0
   -9.6909  -26.8706  -32.9239 H   0  0  0  0  0  0  0  0  0  0  0  0
  -19.6252  -26.2487  -37.9541 H   0  0  0  0  0  0  0  0  0  0  0  0
   -9.5666  -24.6308  -33.9843 H   0  0  0  0  0  0  0  0  0  0  0  0
  -18.7390  -22.1802  -38.9964 H   0  0  0  0  0  0  0  0  0  0  0  0
  -11.4904  -28.4437  -33.5529 H   0  0  0  0  0  0  0  0  0  0  0  0
  -17.2424  -26.6504  -37.4436 H   0  0  0  0  0  0  0  0  0  0  0  0
  -11.2397  -23.9635  -35.6740 H   0  0  0  0  0  0  0  0  0  0  0  0
  -16.4932  -21.3331  -38.1017 H   0  0  0  0  0  0  0  0  0  0  0  0
  -15.1295  -22.4772  -38.0474 H   0  0  0  0  0  0  0  0  0  0  0  0
  -15.8681  -22.0731  -39.5961 H   0  0  0  0  0  0  0  0  0  0  0  0
  -14.3248  -27.9473  -34.6638 H   0  0  0  0  0  0  0  0  0  0  0  0
  -13.8140  -27.9024  -36.3693 H   0  0  0  0  0  0  0  0  0  0  0  0
  -13.1094  -29.0947  -35.2787 H   0  0  0  0  0  0  0  0  0  0  0  0
  -14.6383  -24.7570  -38.4227 H   0  0  0  0  0  0  0  0  0  0  0  0
  -12.8887  -25.3221  -37.4783 H   0  0  0  0  0  0  0  0  0  0  0  0
  1  3  1  0  0  0  0
  1  5  2  0  0  0  0
  2  4  1  0  0  0  0
  2  6  2  0  0  0  0
  3  7  2  0  0  0  0
  4  8  2  0  0  0  0
  5  9  1  0  0  0  0
  6 10  1  0  0  0  0
  7 11  1  0  0  0  0
  8 12  1  0  0  0  0
  9 11  2  0  0  0  0
  9 14  1  0  0  0  0
 10 12  2  0  0  0  0
 10 15  1  0  0  0  0
 11 16  1  0  0  0  0
 12 17  1  0  0  0  0
 13 16  1  0  0  0  0
 13 17  1  0  0  0  0
 13 18  2  0  0  0  0
  1 19  1  0  0  0  0
  2 20  1  0  0  0  0
  3 21  1  0  0  0  0
  4 22  1  0  0  0  0
  5 23  1  0  0  0  0
  6 24  1  0  0  0  0
  7 25  1  0  0  0  0
  8 26  1  0  0  0  0
 14 27  1  0  0  0  0
 14 28  1  0  0  0  0
 14 29  1  0  0  0  0
 15 30  1  0  0  0  0
 15 31  1  0  0  0  0
 15 32  1  0  0  0  0
 16 33  1  0  0  0  0
 17 34  1  0  0  0  0
M  END
> <Name>
IA_168.cdx

> <SourceTag>
IA_168

> <Gold.Version>
5.2

> <Gold.Id.Protein>
6HGV|6HGV_protein|mol2

> <Gold.Goldscore.Fitness>
56.1804

> <Gold.Goldscore.Internal.Vdw>
0.8134

> <Gold.Goldscore.Internal.Torsion>
-10.6625

> <Gold.Goldscore.External.Vdw>
41.0050

> <Gold.Goldscore.Internal.HBond>
0.0000

> <Gold.Goldscore.External.HBond>
2.5757

> <Gold.Goldscore.Internal.Correction>
-7.0720

> <Gold.Goldscore.Hbonds>
donor molecule, donor type, donor heavy atom, donor atom, acceptor molecule, acceptor atom, score
      L1  H    16    33       P1  1931  0.79
      L1  H    17    34       P1  1931  0.50

> <Gold.Goldscore.Internal.Vdw.Weighted>
0.8134

> <Gold.Goldscore.Internal.Torsion.Weighted>
-10.6625

> <Gold.Goldscore.External.Vdw.Weighted>
56.3819

> <Gold.Goldscore.Internal.HBond.Weighted>
0.0000

> <Gold.Goldscore.External.HBond.Weighted>
2.5757

> <Gold.Goldscore.Internal.Correction.Weighted>
-7.0720

> <Gold.Protein.RotatedTorsions>
[ 3781 1176 1175 1172 ] final -167.64 input   60.00 | X-H torsion
[ 3847 1247 1246 1244 ] final  -19.02 input   60.00 | X-H torsion
[ 4507 1931 1930 1928 ] final  140.21 input   60.00 | X-H torsion
[ 3677 1070 1069 1066 ] final -114.24 input   60.00 | X-H torsion
[ 3525  925  924  922 ] final  -44.60 input   59.99 | X-H torsion
[ 4531 1957 1955 1953 ] final  -30.99 input   60.00 | X-H torsion

> <Gold.Protein.ActiveResidues>
 PHE267  PRO268  MET310  ASP335  TRP336  MET339  TYR343  THR360  PRO361  ILE363 
 PRO371  SER374  ILE375  ASN378  PHE381  TYR383  GLN384  PHE387  LEU408  LEU417 
 MET419  LEU428  TYR466  MET469  ASN472  ASP496  VAL498  LEU499  MET503  HIS524 
 TRP525 

> <Gold.Protein.RotatedAtoms>
   -3.7655  -29.5356  -29.7854 H   0  0  0  0  0  0  0  0  0  0  0  0  # atno 3525 bound_to 925 
  -11.5366  -23.6376  -31.4480 H   0  0  0  0  0  0  0  0  0  0  0  0  # atno 3677 bound_to 1070
   -9.2434  -36.4344  -33.0404 H   0  0  0  0  0  0  0  0  0  0  0  0  # atno 3781 bound_to 1176
  -15.9111  -28.4831  -37.0658 H   0  0  0  0  0  0  0  0  0  0  0  0  # atno 3847 bound_to 1247
  -12.5300  -23.8098  -39.6488 H   0  0  0  0  0  0  0  0  0  0  0  0  # atno 4507 bound_to 1931
   -2.4400  -32.2345  -36.7637 H   0  0  0  0  0  0  0  0  0  0  0  0  # atno 4531 bound_to 1957
  -10.4769  -37.4105  -32.6233 LP  0  0  0  0  0  0  0  0  0  0  0  0  # atno 5205 bound_to 1176
  -10.3960  -36.7914  -34.1322 LP  0  0  0  0  0  0  0  0  0  0  0  0  # atno 5206 bound_to 1176
  -15.2608  -27.1916  -37.8123 LP  0  0  0  0  0  0  0  0  0  0  0  0  # atno 5215 bound_to 1247
  -14.3874  -28.5595  -37.6319 LP  0  0  0  0  0  0  0  0  0  0  0  0  # atno 5216 bound_to 1247
  -13.0386  -25.1586  -38.8937 LP  0  0  0  0  0  0  0  0  0  0  0  0  # atno 5217 bound_to 1931
  -13.6300  -24.7712  -40.3657 LP  0  0  0  0  0  0  0  0  0  0  0  0  # atno 5218 bound_to 1931
  -11.5019  -22.2153  -30.6581 LP  0  0  0  0  0  0  0  0  0  0  0  0  # atno 5224 bound_to 1070
  -12.8185  -23.1762  -30.5580 LP  0  0  0  0  0  0  0  0  0  0  0  0  # atno 5225 bound_to 1070

$$$$
IA_117.cdx|SeH_inactivess_minimized|sdf|19|dock8
  -GOLD-   4172118553D 1   1.00000     0.00000

 38 39  0  0  0  0  0  0  0  0  1 V2000
  -16.6332  -24.6189  -37.7356 C   0  0  0  0  0  0  0  0  0  0  0  0
  -17.5531  -25.1984  -35.5781 C   0  0  0  0  0  0  0  0  0  0  0  0
  -17.8807  -24.1437  -38.1399 C   0  0  0  0  0  0  0  0  0  0  0  0
  -18.8006  -24.7232  -35.9824 C   0  0  0  0  0  0  0  0  0  0  0  0
  -16.4694  -25.1463  -36.4547 C   0  0  0  0  0  0  0  0  0  0  0  0
  -18.9644  -24.1958  -37.2633 C   0  0  0  0  0  0  0  0  0  0  0  0
  -13.9461  -25.2458  -36.5181 C   0  0  0  0  0  0  0  0  0  0  0  0
  -10.0821  -26.8276  -33.7462 C   0  0  0  0  0  0  0  0  0  0  0  0
  -10.7969  -25.4795  -33.7033 C   0  0  0  0  0  0  0  0  0  0  0  0
  -10.7125  -27.7744  -34.7641 C   0  0  0  0  0  0  0  0  0  0  0  0
  -10.8838  -24.8442  -35.0916 C   0  0  0  0  0  0  0  0  0  0  0  0
  -10.7992  -27.1337  -36.1500 C   0  0  0  0  0  0  0  0  0  0  0  0
  -11.5147  -25.7763  -36.1347 C   0  0  0  0  0  0  0  0  0  0  0  0
  -15.2044  -25.6282  -36.0447 N   0  0  0  0  0  0  0  0  0  0  0  0
  -12.9408  -25.9581  -35.8554 N   0  0  0  0  0  0  0  0  0  0  0  0
  -13.7139  -24.4096  -37.3881 O   0  0  0  0  0  0  0  0  0  0  0  0
  -20.6674  -22.2369  -37.2822 O   0  0  0  0  0  0  0  0  0  0  0  0
  -20.6539  -23.8993  -39.1876 O   0  0  0  0  0  0  0  0  0  0  0  0
  -21.6155  -24.5121  -36.9593 O   0  0  0  0  0  0  0  0  0  0  0  0
  -20.5260  -23.6013  -37.7695 S   0  0  0  0  0  0  0  0  0  0  0  0
  -15.7956  -24.5735  -38.4271 H   0  0  0  0  0  0  0  0  0  0  0  0
  -17.4370  -25.6071  -34.5775 H   0  0  0  0  0  0  0  0  0  0  0  0
  -17.9973  -23.7351  -39.1401 H   0  0  0  0  0  0  0  0  0  0  0  0
  -19.6382  -24.7684  -35.2914 H   0  0  0  0  0  0  0  0  0  0  0  0
   -9.0236  -26.6759  -33.9901 H   0  0  0  0  0  0  0  0  0  0  0  0
  -10.1155  -27.2891  -32.7504 H   0  0  0  0  0  0  0  0  0  0  0  0
  -11.8049  -25.6093  -33.2948 H   0  0  0  0  0  0  0  0  0  0  0  0
  -10.2611  -24.8030  -33.0267 H   0  0  0  0  0  0  0  0  0  0  0  0
  -10.1184  -28.6941  -34.8248 H   0  0  0  0  0  0  0  0  0  0  0  0
  -11.7148  -28.0619  -34.4287 H   0  0  0  0  0  0  0  0  0  0  0  0
  -11.4651  -23.9077  -35.0282 H   0  0  0  0  0  0  0  0  0  0  0  0
   -9.8739  -24.5444  -35.4188 H   0  0  0  0  0  0  0  0  0  0  0  0
   -9.7824  -27.0167  -36.5614 H   0  0  0  0  0  0  0  0  0  0  0  0
  -11.3201  -27.8222  -36.8381 H   0  0  0  0  0  0  0  0  0  0  0  0
  -11.4565  -25.3190  -37.1192 H   0  0  0  0  0  0  0  0  0  0  0  0
  -15.2170  -26.3382  -35.3167 H   0  0  0  0  0  0  0  0  0  0  0  0
  -13.2128  -26.6332  -35.1472 H   0  0  0  0  0  0  0  0  0  0  0  0
  -21.5984  -25.4752  -37.1707 H   0  0  0  0  0  0  0  0  0  0  0  0
  1  3  1  0  0  0  0
  1  5  2  0  0  0  0
  2  4  2  0  0  0  0
  2  5  1  0  0  0  0
  3  6  2  0  0  0  0
  4  6  1  0  0  0  0
  5 14  1  0  0  0  0
  6 20  1  0  0  0  0
  7 14  1  0  0  0  0
  7 15  1  0  0  0  0
  7 16  2  0  0  0  0
  8  9  1  0  0  0  0
  8 10  1  0  0  0  0
  9 11  1  0  0  0  0
 10 12  1  0  0  0  0
 11 13  1  0  0  0  0
 12 13  1  0  0  0  0
 13 15  1  0  0  0  0
 17 20  2  0  0  0  0
 18 20  2  0  0  0  0
 19 20  1  0  0  0  0
  1 21  1  0  0  0  0
  2 22  1  0  0  0  0
  3 23  1  0  0  0  0
  4 24  1  0  0  0  0
  8 25  1  0  0  0  0
  8 26  1  0  0  0  0
  9 27  1  0  0  0  0
  9 28  1  0  0  0  0
 10 29  1  0  0  0  0
 10 30  1  0  0  0  0
 11 31  1  0  0  0  0
 11 32  1  0  0  0  0
 12 33  1  0  0  0  0
 12 34  1  0  0  0  0
 13 35  1  0  0  0  0
 14 36  1  0  0  0  0
 15 37  1  0  0  0  0
 19 38  1  0  0  0  0
M  END
> <Name>
IA_117.cdx

> <SourceTag>
IA_117

> <Gold.Version>
5.2

> <Gold.Id.Protein>
6HGV|6HGV_protein|mol2

> <Gold.Goldscore.Fitness>
60.8743

> <Gold.Goldscore.Internal.Vdw>
-1.1597

> <Gold.Goldscore.Internal.Torsion>
-4.8227

> <Gold.Goldscore.External.Vdw>
44.5999

> <Gold.Goldscore.Internal.HBond>
0.0000

> <Gold.Goldscore.External.HBond>
0.2354

> <Gold.Goldscore.Internal.Correction>
-5.2966

> <Gold.Goldscore.Hbonds>
donor molecule, donor type, donor heavy atom, donor atom, acceptor molecule, acceptor atom, score
      P1  H  1931  4507       L1    16  0.12

> <Gold.Goldscore.Internal.Vdw.Weighted>
-1.1597

> <Gold.Goldscore.Internal.Torsion.Weighted>
-4.8227

> <Gold.Goldscore.External.Vdw.Weighted>
61.3248

> <Gold.Goldscore.Internal.HBond.Weighted>
0.0000

> <Gold.Goldscore.External.HBond.Weighted>
0.2354

> <Gold.Goldscore.Internal.Correction.Weighted>
-5.2966

> <Gold.Protein.RotatedTorsions>
[ 3781 1176 1175 1172 ] final  -42.52 input   60.00 | X-H torsion
[ 3847 1247 1246 1244 ] final  132.94 input   60.00 | X-H torsion
[ 4507 1931 1930 1928 ] final   24.99 input   60.00 | X-H torsion
[ 3677 1070 1069 1066 ] final -152.93 input   60.00 | X-H torsion
[ 3525  925  924  922 ] final -105.02 input   59.99 | X-H torsion
[ 4531 1957 1955 1953 ] final   85.41 input   60.00 | X-H torsion

> <Gold.Protein.ActiveResidues>
 PHE267  PRO268  MET310  ASP335  TRP336  MET339  TYR343  THR360  PRO361  ILE363 
 PRO371  SER374  ILE375  ASN378  PHE381  TYR383  GLN384  PHE387  LEU408  LEU417 
 MET419  LEU428  TYR466  MET469  ASN472  ASP496  VAL498  LEU499  MET503  HIS524 
 TRP525 

> <Gold.Protein.RotatedAtoms>
   -3.2389  -29.8314  -29.0624 H   0  0  0  0  0  0  0  0  0  0  0  0  # atno 3525 bound_to 925 
  -11.1557  -23.1559  -31.3610 H   0  0  0  0  0  0  0  0  0  0  0  0  # atno 3677 bound_to 1070
  -10.4541  -36.8444  -34.1022 H   0  0  0  0  0  0  0  0  0  0  0  0  # atno 3781 bound_to 1176
  -14.3157  -28.0922  -37.8415 H   0  0  0  0  0  0  0  0  0  0  0  0  # atno 3847 bound_to 1247
  -12.9845  -25.1075  -38.8682 H   0  0  0  0  0  0  0  0  0  0  0  0  # atno 4507 bound_to 1931
   -2.8531  -33.7705  -36.7117 H   0  0  0  0  0  0  0  0  0  0  0  0  # atno 4531 bound_to 1957
   -9.2381  -36.3992  -33.1167 LP  0  0  0  0  0  0  0  0  0  0  0  0  # atno 5205 bound_to 1176
  -10.4155  -37.3897  -32.5695 LP  0  0  0  0  0  0  0  0  0  0  0  0  # atno 5206 bound_to 1176
  -15.5382  -28.8415  -37.0723 LP  0  0  0  0  0  0  0  0  0  0  0  0  # atno 5215 bound_to 1247
  -15.7167  -27.3033  -37.5907 LP  0  0  0  0  0  0  0  0  0  0  0  0  # atno 5216 bound_to 1247
  -13.6526  -24.8357  -40.3269 LP  0  0  0  0  0  0  0  0  0  0  0  0  # atno 5217 bound_to 1931
  -12.5583  -23.7872  -39.7186 LP  0  0  0  0  0  0  0  0  0  0  0  0  # atno 5218 bound_to 1931
  -12.0639  -22.2222  -30.3857 LP  0  0  0  0  0  0  0  0  0  0  0  0  # atno 5224 bound_to 1070
  -12.6401  -23.6544  -30.9180 LP  0  0  0  0  0  0  0  0  0  0  0  0  # atno 5225 bound_to 1070

$$$$
IA_32|SeH_inactivess_minimized|sdf|118|dock4
  -GOLD-   4172121163D 1   1.00000     0.00000

 45 45  0  0  0  0  0  0  0  0  1 V2000
   -7.8430  -32.2603  -35.7392 C   0  0  0  0  0  0  0  0  0  0  0  0
   -8.3289  -30.9674  -35.5443 C   0  0  0  0  0  0  0  0  0  0  0  0
   -6.4731  -32.5103  -35.6579 C   0  0  0  0  0  0  0  0  0  0  0  0
   -6.0748  -30.1741  -35.1875 C   0  0  0  0  0  0  0  0  0  0  0  0
   -7.4447  -29.9243  -35.2685 C   0  0  0  0  0  0  0  0  0  0  0  0
   -5.5889  -31.4671  -35.3820 C   0  0  0  0  0  0  0  0  0  0  0  0
   -9.0845  -28.0358  -35.6254 C   0  0  0  0  0  0  0  0  0  0  0  0
  -13.5620  -25.9273  -36.2665 C   0  0  0  0  0  0  0  0  0  0  0  0
  -19.8989  -23.7548  -39.6891 C   0  0  0  0  0  0  0  0  0  0  0  0
  -18.7858  -23.4202  -38.7089 C   0  0  0  0  0  0  0  0  0  0  0  0
  -17.7578  -24.5479  -38.6227 C   0  0  0  0  0  0  0  0  0  0  0  0
  -16.6590  -24.2229  -37.6108 C   0  0  0  0  0  0  0  0  0  0  0  0
  -15.5985  -25.3167  -37.5730 C   0  0  0  0  0  0  0  0  0  0  0  0
  -10.3151  -25.8570  -35.5812 C   0  0  0  0  0  0  0  0  0  0  0  0
  -11.5764  -26.1184  -34.7750 C   0  0  0  0  0  0  0  0  0  0  0  0
   -7.9382  -28.6134  -35.0716 N   0  0  0  0  0  0  0  0  0  0  0  0
   -9.2296  -26.7128  -35.1835 N   0  0  0  0  0  0  0  0  0  0  0  0
  -14.5792  -25.0310  -36.6006 N   0  0  0  0  0  0  0  0  0  0  0  0
  -12.7123  -25.3972  -35.2988 N   0  0  0  0  0  0  0  0  0  0  0  0
   -9.8776  -28.5749  -36.3932 O   0  0  0  0  0  0  0  0  0  0  0  0
  -13.4330  -27.0444  -36.7652 O   0  0  0  0  0  0  0  0  0  0  0  0
   -3.8987  -31.7759  -35.2829 Cl  0  0  0  0  0  0  0  0  0  0  0  0
   -8.5315  -33.0727  -35.9538 H   0  0  0  0  0  0  0  0  0  0  0  0
   -9.3985  -30.7842  -35.6109 H   0  0  0  0  0  0  0  0  0  0  0  0
   -6.1094  -33.5228  -35.8125 H   0  0  0  0  0  0  0  0  0  0  0  0
   -5.3881  -29.3579  -34.9728 H   0  0  0  0  0  0  0  0  0  0  0  0
  -20.4287  -24.6569  -39.3674 H   0  0  0  0  0  0  0  0  0  0  0  0
  -20.6254  -22.9383  -39.7515 H   0  0  0  0  0  0  0  0  0  0  0  0
  -19.4979  -23.9357  -40.6914 H   0  0  0  0  0  0  0  0  0  0  0  0
  -19.2212  -23.2364  -37.7198 H   0  0  0  0  0  0  0  0  0  0  0  0
  -18.2952  -22.4921  -39.0252 H   0  0  0  0  0  0  0  0  0  0  0  0
  -17.3103  -24.7135  -39.6103 H   0  0  0  0  0  0  0  0  0  0  0  0
  -18.2584  -25.4803  -38.3346 H   0  0  0  0  0  0  0  0  0  0  0  0
  -17.0972  -24.1009  -36.6123 H   0  0  0  0  0  0  0  0  0  0  0  0
  -16.1906  -23.2641  -37.8667 H   0  0  0  0  0  0  0  0  0  0  0  0
  -15.1036  -25.4183  -38.5439 H   0  0  0  0  0  0  0  0  0  0  0  0
  -16.0429  -26.2812  -37.3073 H   0  0  0  0  0  0  0  0  0  0  0  0
   -9.9751  -24.8228  -35.4668 H   0  0  0  0  0  0  0  0  0  0  0  0
  -10.5013  -26.0472  -36.6427 H   0  0  0  0  0  0  0  0  0  0  0  0
  -11.8303  -27.1824  -34.8037 H   0  0  0  0  0  0  0  0  0  0  0  0
  -11.4505  -25.8196  -33.7294 H   0  0  0  0  0  0  0  0  0  0  0  0
   -7.3930  -28.0190  -34.4523 H   0  0  0  0  0  0  0  0  0  0  0  0
   -8.5289  -26.3379  -34.5467 H   0  0  0  0  0  0  0  0  0  0  0  0
  -14.5999  -24.1274  -36.1307 H   0  0  0  0  0  0  0  0  0  0  0  0
  -12.8695  -24.4470  -34.9778 H   0  0  0  0  0  0  0  0  0  0  0  0
  1  2  2  0  0  0  0
  1  3  1  0  0  0  0
  2  5  1  0  0  0  0
  3  6  2  0  0  0  0
  4  5  2  0  0  0  0
  4  6  1  0  0  0  0
  5 16  1  0  0  0  0
  6 22  1  0  0  0  0
  7 16  1  0  0  0  0
  7 17  1  0  0  0  0
  7 20  2  0  0  0  0
  8 18  1  0  0  0  0
  8 19  1  0  0  0  0
  8 21  2  0  0  0  0
  9 10  1  0  0  0  0
 10 11  1  0  0  0  0
 11 12  1  0  0  0  0
 12 13  1  0  0  0  0
 13 18  1  0  0  0  0
 14 15  1  0  0  0  0
 14 17  1  0  0  0  0
 15 19  1  0  0  0  0
  1 23  1  0  0  0  0
  2 24  1  0  0  0  0
  3 25  1  0  0  0  0
  4 26  1  0  0  0  0
  9 27  1  0  0  0  0
  9 28  1  0  0  0  0
  9 29  1  0  0  0  0
 10 30  1  0  0  0  0
 10 31  1  0  0  0  0
 11 32  1  0  0  0  0
 11 33  1  0  0  0  0
 12 34  1  0  0  0  0
 12 35  1  0  0  0  0
 13 36  1  0  0  0  0
 13 37  1  0  0  0  0
 14 38  1  0  0  0  0
 14 39  1  0  0  0  0
 15 40  1  0  0  0  0
 15 41  1  0  0  0  0
 16 42  1  0  0  0  0
 17 43  1  0  0  0  0
 18 44  1  0  0  0  0
 19 45  1  0  0  0  0
M  END
> <Name>
IA_32

> <SourceTag>
IA_32

> <Gold.Version>
5.2

> <Gold.Id.Protein>
6HGV|6HGV_protein|mol2

> <Gold.Goldscore.Fitness>
71.6459

> <Gold.Goldscore.Internal.Vdw>
-2.4945

> <Gold.Goldscore.Internal.Torsion>
-3.4406

> <Gold.Goldscore.External.Vdw>
48.8925

> <Gold.Goldscore.Internal.HBond>
0.0000

> <Gold.Goldscore.External.HBond>
4.6687

> <Gold.Goldscore.Internal.Correction>
-5.6849

> <Gold.Goldscore.Hbonds>
donor molecule, donor type, donor heavy atom, donor atom, acceptor molecule, acceptor atom, score
      P1  H  1247  3847       L1    21  0.01
      L1  H    18    44       P1   853  0.59
      L1  H    19    45       P1   853  0.19

> <Gold.Goldscore.Internal.Vdw.Weighted>
-2.4945

> <Gold.Goldscore.Internal.Torsion.Weighted>
-3.4406

> <Gold.Goldscore.External.Vdw.Weighted>
67.2272

> <Gold.Goldscore.Internal.HBond.Weighted>
0.0000

> <Gold.Goldscore.External.HBond.Weighted>
4.6687

> <Gold.Goldscore.Internal.Correction.Weighted>
-5.6849

> <Gold.Protein.RotatedTorsions>
[ 3781 1176 1175 1172 ] final  -53.33 input   60.00 | X-H torsion
[ 3847 1247 1246 1244 ] final  135.35 input   60.00 | X-H torsion
[ 4507 1931 1930 1928 ] final   71.97 input   60.00 | X-H torsion
[ 3677 1070 1069 1066 ] final -118.01 input   60.00 | X-H torsion
[ 3525  925  924  922 ] final   57.41 input   59.99 | X-H torsion
[ 4531 1957 1955 1953 ] final  108.91 input   60.00 | X-H torsion

> <Gold.Protein.ActiveResidues>
 PHE267  PRO268  MET310  ASP335  TRP336  MET339  TYR343  THR360  PRO361  ILE363 
 PRO371  SER374  ILE375  ASN378  PHE381  TYR383  GLN384  PHE387  LEU408  LEU417 
 MET419  LEU428  TYR466  MET469  ASN472  ASP496  VAL498  LEU499  MET503  HIS524 
 TRP525 

> <Gold.Protein.RotatedAtoms>
   -2.8437  -29.8382  -30.8701 H   0  0  0  0  0  0  0  0  0  0  0  0  # atno 3525 bound_to 925 
  -11.4879  -23.6000  -31.4506 H   0  0  0  0  0  0  0  0  0  0  0  0  # atno 3677 bound_to 1070
  -10.3201  -36.7385  -34.1462 H   0  0  0  0  0  0  0  0  0  0  0  0  # atno 3781 bound_to 1176
  -14.3207  -28.0550  -37.8537 H   0  0  0  0  0  0  0  0  0  0  0  0  # atno 3847 bound_to 1247
  -12.5510  -24.5000  -38.8575 H   0  0  0  0  0  0  0  0  0  0  0  0  # atno 4507 bound_to 1931
   -2.5476  -33.9902  -36.7736 H   0  0  0  0  0  0  0  0  0  0  0  0  # atno 4531 bound_to 1957
   -9.2477  -36.4670  -32.9528 LP  0  0  0  0  0  0  0  0  0  0  0  0  # atno 5205 bound_to 1176
  -10.5409  -37.4286  -32.6891 LP  0  0  0  0  0  0  0  0  0  0  0  0  # atno 5206 bound_to 1176
  -15.5037  -28.8600  -37.0788 LP  0  0  0  0  0  0  0  0  0  0  0  0  # atno 5215 bound_to 1247
  -15.7461  -27.3223  -37.5719 LP  0  0  0  0  0  0  0  0  0  0  0  0  # atno 5216 bound_to 1247
  -13.6464  -25.3120  -39.7455 LP  0  0  0  0  0  0  0  0  0  0  0  0  # atno 5217 bound_to 1931
  -13.0010  -23.9226  -40.3108 LP  0  0  0  0  0  0  0  0  0  0  0  0  # atno 5218 bound_to 1931
  -11.5516  -22.1994  -30.6246 LP  0  0  0  0  0  0  0  0  0  0  0  0  # atno 5224 bound_to 1070
  -12.8178  -23.2299  -30.5889 LP  0  0  0  0  0  0  0  0  0  0  0  0  # atno 5225 bound_to 1070

$$$$
IA_99.cdx|SeH_inactivess_minimized|sdf|178|dock4
  -GOLD-   41821 8503D 1   1.00000     0.00000

 53 52  0  0  0  0  0  0  0  0  1 V2000
   -6.8226  -31.4923  -35.4680 C   0  0  0  0  0  0  0  0  0  0  0  0
  -20.9874  -23.8681  -39.4609 C   0  0  0  0  0  0  0  0  0  0  0  0
   -4.8031  -32.9380  -35.2260 C   0  0  0  0  0  0  0  0  0  0  0  0
  -20.8655  -23.5811  -37.9720 C   0  0  0  0  0  0  0  0  0  0  0  0
  -19.9548  -24.5969  -37.2814 C   0  0  0  0  0  0  0  0  0  0  0  0
  -18.4893  -24.4930  -37.7128 C   0  0  0  0  0  0  0  0  0  0  0  0
  -17.5386  -25.3169  -36.8414 C   0  0  0  0  0  0  0  0  0  0  0  0
  -16.0875  -25.1573  -37.3012 C   0  0  0  0  0  0  0  0  0  0  0  0
  -15.1083  -25.6439  -36.2314 C   0  0  0  0  0  0  0  0  0  0  0  0
  -13.6594  -25.5216  -36.7062 C   0  0  0  0  0  0  0  0  0  0  0  0
  -12.6767  -25.9000  -35.5970 C   0  0  0  0  0  0  0  0  0  0  0  0
  -11.2535  -25.4563  -35.9392 C   0  0  0  0  0  0  0  0  0  0  0  0
  -10.2201  -26.1890  -35.0803 C   0  0  0  0  0  0  0  0  0  0  0  0
  -10.0425  -27.6370  -35.5425 C   0  0  0  0  0  0  0  0  0  0  0  0
   -8.7622  -28.2922  -35.0147 C   0  0  0  0  0  0  0  0  0  0  0  0
   -8.5949  -29.7423  -35.4676 C   0  0  0  0  0  0  0  0  0  0  0  0
   -5.5295  -31.7099  -35.0000 N   0  0  0  0  0  0  0  0  0  0  0  0
   -7.2692  -30.2329  -35.1061 N   0  0  0  0  0  0  0  0  0  0  0  0
   -7.4759  -32.3106  -36.1140 O   0  0  0  0  0  0  0  0  0  0  0  0
  -21.7554  -23.2294  -39.9082 H   0  0  0  0  0  0  0  0  0  0  0  0
  -20.0414  -23.6741  -39.9763 H   0  0  0  0  0  0  0  0  0  0  0  0
  -21.2684  -24.9113  -39.6381 H   0  0  0  0  0  0  0  0  0  0  0  0
   -3.8269  -32.8926  -34.7361 H   0  0  0  0  0  0  0  0  0  0  0  0
   -4.6523  -33.0963  -36.2972 H   0  0  0  0  0  0  0  0  0  0  0  0
   -5.3608  -33.7869  -34.8214 H   0  0  0  0  0  0  0  0  0  0  0  0
  -20.4724  -22.5671  -37.8428 H   0  0  0  0  0  0  0  0  0  0  0  0
  -21.8631  -23.6055  -37.5186 H   0  0  0  0  0  0  0  0  0  0  0  0
  -20.0030  -24.4408  -36.1964 H   0  0  0  0  0  0  0  0  0  0  0  0
  -20.3227  -25.6129  -37.4700 H   0  0  0  0  0  0  0  0  0  0  0  0
  -18.1938  -23.4374  -37.6652 H   0  0  0  0  0  0  0  0  0  0  0  0
  -18.3918  -24.8007  -38.7611 H   0  0  0  0  0  0  0  0  0  0  0  0
  -17.8126  -26.3769  -36.8847 H   0  0  0  0  0  0  0  0  0  0  0  0
  -17.6292  -24.9990  -35.7958 H   0  0  0  0  0  0  0  0  0  0  0  0
  -15.9316  -25.7240  -38.2271 H   0  0  0  0  0  0  0  0  0  0  0  0
  -15.8877  -24.1033  -37.5292 H   0  0  0  0  0  0  0  0  0  0  0  0
  -15.2451  -25.0577  -35.3144 H   0  0  0  0  0  0  0  0  0  0  0  0
  -15.3263  -26.6896  -35.9821 H   0  0  0  0  0  0  0  0  0  0  0  0
  -13.5013  -26.1723  -37.5748 H   0  0  0  0  0  0  0  0  0  0  0  0
  -13.4660  -24.4928  -37.0333 H   0  0  0  0  0  0  0  0  0  0  0  0
  -12.6959  -26.9860  -35.4442 H   0  0  0  0  0  0  0  0  0  0  0  0
  -12.9899  -25.4352  -34.6542 H   0  0  0  0  0  0  0  0  0  0  0  0
  -11.0538  -25.6503  -37.0001 H   0  0  0  0  0  0  0  0  0  0  0  0
  -11.1584  -24.3746  -35.7845 H   0  0  0  0  0  0  0  0  0  0  0  0
  -10.5389  -26.1743  -34.0311 H   0  0  0  0  0  0  0  0  0  0  0  0
   -9.2648  -25.6559  -35.1379 H   0  0  0  0  0  0  0  0  0  0  0  0
  -10.8974  -28.2306  -35.1951 H   0  0  0  0  0  0  0  0  0  0  0  0
  -10.0530  -27.6803  -36.6384 H   0  0  0  0  0  0  0  0  0  0  0  0
   -8.7914  -28.2562  -33.9179 H   0  0  0  0  0  0  0  0  0  0  0  0
   -7.8927  -27.6994  -35.3259 H   0  0  0  0  0  0  0  0  0  0  0  0
   -8.7096  -29.8239  -36.5526 H   0  0  0  0  0  0  0  0  0  0  0  0
   -9.3562  -30.3761  -35.0002 H   0  0  0  0  0  0  0  0  0  0  0  0
   -5.0750  -30.9695  -34.4746 H   0  0  0  0  0  0  0  0  0  0  0  0
   -6.6905  -29.6365  -34.5354 H   0  0  0  0  0  0  0  0  0  0  0  0
  1 17  1  0  0  0  0
  1 18  1  0  0  0  0
  1 19  2  0  0  0  0
  2  4  1  0  0  0  0
  3 17  1  0  0  0  0
  4  5  1  0  0  0  0
  5  6  1  0  0  0  0
  6  7  1  0  0  0  0
  7  8  1  0  0  0  0
  8  9  1  0  0  0  0
  9 10  1  0  0  0  0
 10 11  1  0  0  0  0
 11 12  1  0  0  0  0
 12 13  1  0  0  0  0
 13 14  1  0  0  0  0
 14 15  1  0  0  0  0
 15 16  1  0  0  0  0
 16 18  1  0  0  0  0
  2 20  1  0  0  0  0
  2 21  1  0  0  0  0
  2 22  1  0  0  0  0
  3 23  1  0  0  0  0
  3 24  1  0  0  0  0
  3 25  1  0  0  0  0
  4 26  1  0  0  0  0
  4 27  1  0  0  0  0
  5 28  1  0  0  0  0
  5 29  1  0  0  0  0
  6 30  1  0  0  0  0
  6 31  1  0  0  0  0
  7 32  1  0  0  0  0
  7 33  1  0  0  0  0
  8 34  1  0  0  0  0
  8 35  1  0  0  0  0
  9 36  1  0  0  0  0
  9 37  1  0  0  0  0
 10 38  1  0  0  0  0
 10 39  1  0  0  0  0
 11 40  1  0  0  0  0
 11 41  1  0  0  0  0
 12 42  1  0  0  0  0
 12 43  1  0  0  0  0
 13 44  1  0  0  0  0
 13 45  1  0  0  0  0
 14 46  1  0  0  0  0
 14 47  1  0  0  0  0
 15 48  1  0  0  0  0
 15 49  1  0  0  0  0
 16 50  1  0  0  0  0
 16 51  1  0  0  0  0
 17 52  1  0  0  0  0
 18 53  1  0  0  0  0
M  END
> <Name>
IA_99.cdx

> <SourceTag>
IA_99

> <Gold.Version>
5.2

> <Gold.Id.Protein>
6HGV|6HGV_protein|mol2

> <Gold.Goldscore.Fitness>
60.8207

> <Gold.Goldscore.Internal.Vdw>
-8.2668

> <Gold.Goldscore.Internal.Torsion>
-4.4148

> <Gold.Goldscore.External.Vdw>
48.3528

> <Gold.Goldscore.Internal.HBond>
0.0000

> <Gold.Goldscore.External.HBond>
0.0000

> <Gold.Goldscore.Internal.Correction>
-7.0173

> <Gold.Goldscore.Internal.Vdw.Weighted>
-8.2668

> <Gold.Goldscore.Internal.Torsion.Weighted>
-4.4148

> <Gold.Goldscore.External.Vdw.Weighted>
66.4851

> <Gold.Goldscore.Internal.HBond.Weighted>
0.0000

> <Gold.Goldscore.External.HBond.Weighted>
0.0000

> <Gold.Goldscore.Internal.Correction.Weighted>
-7.0173

> <Gold.Protein.RotatedTorsions>
[ 3781 1176 1175 1172 ] final -176.51 input   60.00 | X-H torsion
[ 3847 1247 1246 1244 ] final  109.49 input   60.00 | X-H torsion
[ 4507 1931 1930 1928 ] final  -67.94 input   60.00 | X-H torsion
[ 3677 1070 1069 1066 ] final -100.90 input   60.00 | X-H torsion
[ 3525  925  924  922 ] final  -14.46 input   59.99 | X-H torsion
[ 4531 1957 1955 1953 ] final  -38.59 input   60.00 | X-H torsion

> <Gold.Protein.ActiveResidues>
 PHE267  PRO268  MET310  ASP335  TRP336  MET339  TYR343  THR360  PRO361  ILE363 
 PRO371  SER374  ILE375  ASN378  PHE381  TYR383  GLN384  PHE387  LEU408  LEU417 
 MET419  LEU428  TYR466  MET469  ASN472  ASP496  VAL498  LEU499  MET503  HIS524 
 TRP525 

> <Gold.Protein.RotatedAtoms>
   -3.7054  -29.5177  -30.2682 H   0  0  0  0  0  0  0  0  0  0  0  0  # atno 3525 bound_to 925 
  -11.7219  -23.7478  -31.4197 H   0  0  0  0  0  0  0  0  0  0  0  0  # atno 3677 bound_to 1070
   -9.2601  -36.4945  -32.9096 H   0  0  0  0  0  0  0  0  0  0  0  0  # atno 3781 bound_to 1176
  -14.3471  -28.4421  -37.6953 H   0  0  0  0  0  0  0  0  0  0  0  0  # atno 3847 bound_to 1247
  -13.6944  -25.1521  -40.0243 H   0  0  0  0  0  0  0  0  0  0  0  0  # atno 4507 bound_to 1931
   -2.3211  -32.2069  -36.7858 H   0  0  0  0  0  0  0  0  0  0  0  0  # atno 4531 bound_to 1957
  -10.5746  -37.4363  -32.7284 LP  0  0  0  0  0  0  0  0  0  0  0  0  # atno 5205 bound_to 1176
  -10.2815  -36.7050  -34.1588 LP  0  0  0  0  0  0  0  0  0  0  0  0  # atno 5206 bound_to 1176
  -15.8328  -28.5975  -37.0500 LP  0  0  0  0  0  0  0  0  0  0  0  0  # atno 5215 bound_to 1247
  -15.3905  -27.1950  -37.7601 LP  0  0  0  0  0  0  0  0  0  0  0  0  # atno 5216 bound_to 1247
  -12.7891  -23.8017  -40.0945 LP  0  0  0  0  0  0  0  0  0  0  0  0  # atno 5217 bound_to 1931
  -12.7069  -24.7762  -38.7867 LP  0  0  0  0  0  0  0  0  0  0  0  0  # atno 5218 bound_to 1931
  -11.3431  -22.2986  -30.7836 LP  0  0  0  0  0  0  0  0  0  0  0  0  # atno 5224 bound_to 1070
  -12.7907  -22.9819  -30.4610 LP  0  0  0  0  0  0  0  0  0  0  0  0  # atno 5225 bound_to 1070

$$$$
IA_157.cdx|SeH_inactivess_minimized|sdf|58|dock7
  -GOLD-   4172119523D 1   1.00000     0.00000

 29 28  0  0  0  0  0  0  0  0  1 V2000
  -10.3556  -27.9626  -36.6530 C   0  0  0  0  0  0  0  0  0  0  0  0
  -10.6121  -29.4215  -34.4695 C   0  0  0  0  0  0  0  0  0  0  0  0
   -9.3386  -31.1667  -35.7532 C   0  0  0  0  0  0  0  0  0  0  0  0
   -8.1929  -29.0429  -35.0511 C   0  0  0  0  0  0  0  0  0  0  0  0
   -9.5364  -26.6762  -34.4950 C   0  0  0  0  0  0  0  0  0  0  0  0
  -11.0914  -24.8572  -35.2623 C   0  0  0  0  0  0  0  0  0  0  0  0
  -12.0249  -27.0517  -34.4694 C   0  0  0  0  0  0  0  0  0  0  0  0
   -9.5123  -29.6694  -35.5012 C   0  0  0  0  0  0  0  0  0  0  0  0
  -10.8629  -26.3665  -35.1879 C   0  0  0  0  0  0  0  0  0  0  0  0
   -9.9152  -29.0429  -36.7683 N   0  0  0  0  0  0  0  0  0  0  0  0
  -10.7995  -26.8793  -36.5586 N   0  0  0  0  0  0  0  0  0  0  0  0
  -10.3297  -28.6212  -33.7757 H   0  0  0  0  0  0  0  0  0  0  0  0
  -11.5527  -29.1347  -34.9525 H   0  0  0  0  0  0  0  0  0  0  0  0
  -10.8006  -30.3187  -33.8688 H   0  0  0  0  0  0  0  0  0  0  0  0
   -8.6411  -31.3505  -36.5784 H   0  0  0  0  0  0  0  0  0  0  0  0
  -10.2917  -31.6351  -36.0252 H   0  0  0  0  0  0  0  0  0  0  0  0
   -8.9526  -31.6774  -34.8641 H   0  0  0  0  0  0  0  0  0  0  0  0
   -8.0773  -28.0307  -35.4555 H   0  0  0  0  0  0  0  0  0  0  0  0
   -8.1358  -28.9790  -33.9590 H   0  0  0  0  0  0  0  0  0  0  0  0
   -7.3368  -29.6308  -35.4013 H   0  0  0  0  0  0  0  0  0  0  0  0
   -8.7524  -26.9031  -35.2265 H   0  0  0  0  0  0  0  0  0  0  0  0
   -9.1981  -25.8293  -33.8879 H   0  0  0  0  0  0  0  0  0  0  0  0
   -9.6274  -27.5483  -33.8376 H   0  0  0  0  0  0  0  0  0  0  0  0
  -10.2222  -24.3465  -35.6924 H   0  0  0  0  0  0  0  0  0  0  0  0
  -11.2550  -24.4324  -34.2651 H   0  0  0  0  0  0  0  0  0  0  0  0
  -11.9641  -24.6170  -35.8794 H   0  0  0  0  0  0  0  0  0  0  0  0
  -12.2615  -28.0171  -34.9313 H   0  0  0  0  0  0  0  0  0  0  0  0
  -11.7895  -27.2305  -33.4145 H   0  0  0  0  0  0  0  0  0  0  0  0
  -12.9332  -26.4402  -34.5148 H   0  0  0  0  0  0  0  0  0  0  0  0
  1 10  2  0  0  0  0
  1 11  2  0  0  0  0
  2  8  1  0  0  0  0
  3  8  1  0  0  0  0
  4  8  1  0  0  0  0
  5  9  1  0  0  0  0
  6  9  1  0  0  0  0
  7  9  1  0  0  0  0
  8 10  1  0  0  0  0
  9 11  1  0  0  0  0
  2 12  1  0  0  0  0
  2 13  1  0  0  0  0
  2 14  1  0  0  0  0
  3 15  1  0  0  0  0
  3 16  1  0  0  0  0
  3 17  1  0  0  0  0
  4 18  1  0  0  0  0
  4 19  1  0  0  0  0
  4 20  1  0  0  0  0
  5 21  1  0  0  0  0
  5 22  1  0  0  0  0
  5 23  1  0  0  0  0
  6 24  1  0  0  0  0
  6 25  1  0  0  0  0
  6 26  1  0  0  0  0
  7 27  1  0  0  0  0
  7 28  1  0  0  0  0
  7 29  1  0  0  0  0
M  END
> <Name>
IA_157.cdx

> <SourceTag>
IA_157

> <Gold.Version>
5.2

> <Gold.Id.Protein>
6HGV|6HGV_protein|mol2

> <Gold.Goldscore.Fitness>
35.0983

> <Gold.Goldscore.Internal.Vdw>
-118.9577

> <Gold.Goldscore.Internal.Torsion>
-10.2998

> <Gold.Goldscore.External.Vdw>
25.7166

> <Gold.Goldscore.Internal.HBond>
0.0000

> <Gold.Goldscore.External.HBond>
0.0000

> <Gold.Goldscore.Internal.Correction>
-128.9956

> <Gold.Goldscore.Internal.Vdw.Weighted>
-118.9577

> <Gold.Goldscore.Internal.Torsion.Weighted>
-10.2998

> <Gold.Goldscore.External.Vdw.Weighted>
35.3603

> <Gold.Goldscore.Internal.HBond.Weighted>
0.0000

> <Gold.Goldscore.External.HBond.Weighted>
0.0000

> <Gold.Goldscore.Internal.Correction.Weighted>
-128.9956

> <Gold.Protein.RotatedTorsions>
[ 3781 1176 1175 1172 ] final -121.20 input   60.00 | X-H torsion
[ 3847 1247 1246 1244 ] final  149.50 input   60.00 | X-H torsion
[ 4507 1931 1930 1928 ] final   45.92 input   60.00 | X-H torsion
[ 3677 1070 1069 1066 ] final -112.88 input   60.00 | X-H torsion
[ 3525  925  924  922 ] final   86.57 input   59.99 | X-H torsion
[ 4531 1957 1955 1953 ] final   36.47 input   60.00 | X-H torsion

> <Gold.Protein.ActiveResidues>
 PHE267  PRO268  MET310  ASP335  TRP336  MET339  TYR343  THR360  PRO361  ILE363 
 PRO371  SER374  ILE375  ASN378  PHE381  TYR383  GLN384  PHE387  LEU408  LEU417 
 MET419  LEU428  TYR466  MET469  ASN472  ASP496  VAL498  LEU499  MET503  HIS524 
 TRP525 

> <Gold.Protein.RotatedAtoms>
   -2.4356  -30.0289  -30.7315 H   0  0  0  0  0  0  0  0  0  0  0  0  # atno 3525 bound_to 925 
  -11.5546  -23.6505  -31.4465 H   0  0  0  0  0  0  0  0  0  0  0  0  # atno 3677 bound_to 1070
   -9.4563  -36.3154  -33.7372 H   0  0  0  0  0  0  0  0  0  0  0  0  # atno 3781 bound_to 1176
  -14.3811  -27.8402  -37.9122 H   0  0  0  0  0  0  0  0  0  0  0  0  # atno 3847 bound_to 1247
  -12.7655  -24.8578  -38.7943 H   0  0  0  0  0  0  0  0  0  0  0  0  # atno 4507 bound_to 1931
   -3.0938  -33.0354  -36.6533 H   0  0  0  0  0  0  0  0  0  0  0  0  # atno 4531 bound_to 1957
   -9.8562  -37.0932  -32.3649 LP  0  0  0  0  0  0  0  0  0  0  0  0  # atno 5205 bound_to 1176
  -10.8023  -37.2285  -33.6890 LP  0  0  0  0  0  0  0  0  0  0  0  0  # atno 5206 bound_to 1176
  -15.2919  -28.9396  -37.1314 LP  0  0  0  0  0  0  0  0  0  0  0  0  # atno 5215 bound_to 1247
  -15.8971  -27.4590  -37.4603 LP  0  0  0  0  0  0  0  0  0  0  0  0  # atno 5216 bound_to 1247
  -13.7020  -25.0915  -40.1044 LP  0  0  0  0  0  0  0  0  0  0  0  0  # atno 5217 bound_to 1931
  -12.7294  -23.7828  -40.0154 LP  0  0  0  0  0  0  0  0  0  0  0  0  # atno 5218 bound_to 1931
  -11.4845  -22.2219  -30.6704 LP  0  0  0  0  0  0  0  0  0  0  0  0  # atno 5224 bound_to 1070
  -12.8178  -23.1567  -30.5472 LP  0  0  0  0  0  0  0  0  0  0  0  0  # atno 5225 bound_to 1070

$$$$
IA_134.cdx|SeH_inactivess_minimized|sdf|36|dock5
  -GOLD-   4172119223D 1   1.00000     0.00000

 30 31  0  0  0  0  0  0  0  0  1 V2000
   -4.1842  -31.4458  -35.1339 C   0  0  0  0  0  0  0  0  0  0  0  0
   -4.5325  -30.1408  -34.7983 C   0  0  0  0  0  0  0  0  0  0  0  0
   -8.8025  -32.3628  -36.3600 C   0  0  0  0  0  0  0  0  0  0  0  0
   -5.1558  -32.3284  -35.6067 C   0  0  0  0  0  0  0  0  0  0  0  0
   -5.8535  -29.7134  -34.9342 C   0  0  0  0  0  0  0  0  0  0  0  0
   -7.4814  -32.7902  -36.2242 C   0  0  0  0  0  0  0  0  0  0  0  0
   -9.1507  -31.0578  -36.0244 C   0  0  0  0  0  0  0  0  0  0  0  0
   -6.4905  -31.9153  -35.7498 C   0  0  0  0  0  0  0  0  0  0  0  0
   -6.8445  -30.5882  -35.4084 C   0  0  0  0  0  0  0  0  0  0  0  0
   -8.1792  -30.1751  -35.5515 C   0  0  0  0  0  0  0  0  0  0  0  0
   -9.5146  -28.0604  -35.9043 C   0  0  0  0  0  0  0  0  0  0  0  0
  -11.8353  -25.8207  -35.0138 C   0  0  0  0  0  0  0  0  0  0  0  0
  -10.5300  -25.7825  -35.7331 C   0  0  0  0  0  0  0  0  0  0  0  0
   -8.5871  -28.8749  -35.2303 N   0  0  0  0  0  0  0  0  0  0  0  0
   -9.6454  -26.8239  -35.2638 N   0  0  0  0  0  0  0  0  0  0  0  0
  -10.1414  -28.3613  -36.9174 O   0  0  0  0  0  0  0  0  0  0  0  0
   -3.1556  -31.7780  -35.0278 H   0  0  0  0  0  0  0  0  0  0  0  0
   -3.7753  -29.4544  -34.4304 H   0  0  0  0  0  0  0  0  0  0  0  0
   -9.5590  -33.0496  -36.7282 H   0  0  0  0  0  0  0  0  0  0  0  0
   -4.8610  -33.3439  -35.8628 H   0  0  0  0  0  0  0  0  0  0  0  0
   -6.0845  -28.6861  -34.6615 H   0  0  0  0  0  0  0  0  0  0  0  0
   -7.2319  -33.8145  -36.4929 H   0  0  0  0  0  0  0  0  0  0  0  0
  -10.1841  -30.7390  -36.1355 H   0  0  0  0  0  0  0  0  0  0  0  0
  -12.4995  -25.0243  -35.3669 H   0  0  0  0  0  0  0  0  0  0  0  0
  -12.3282  -26.7894  -35.1511 H   0  0  0  0  0  0  0  0  0  0  0  0
  -11.6719  -25.6730  -33.9396 H   0  0  0  0  0  0  0  0  0  0  0  0
  -10.0309  -24.8223  -35.5711 H   0  0  0  0  0  0  0  0  0  0  0  0
  -10.6748  -25.9274  -36.8078 H   0  0  0  0  0  0  0  0  0  0  0  0
   -8.1613  -28.4556  -34.3996 H   0  0  0  0  0  0  0  0  0  0  0  0
   -9.0928  -26.6501  -34.4302 H   0  0  0  0  0  0  0  0  0  0  0  0
  1  2  1  0  0  0  0
  1  4  2  0  0  0  0
  2  5  2  0  0  0  0
  3  6  2  0  0  0  0
  3  7  1  0  0  0  0
  4  8  1  0  0  0  0
  5  9  1  0  0  0  0
  6  8  1  0  0  0  0
  7 10  2  0  0  0  0
  8  9  2  0  0  0  0
  9 10  1  0  0  0  0
 10 14  1  0  0  0  0
 11 14  1  0  0  0  0
 11 15  1  0  0  0  0
 11 16  2  0  0  0  0
 12 13  1  0  0  0  0
 13 15  1  0  0  0  0
  1 17  1  0  0  0  0
  2 18  1  0  0  0  0
  3 19  1  0  0  0  0
  4 20  1  0  0  0  0
  5 21  1  0  0  0  0
  6 22  1  0  0  0  0
  7 23  1  0  0  0  0
 12 24  1  0  0  0  0
 12 25  1  0  0  0  0
 12 26  1  0  0  0  0
 13 27  1  0  0  0  0
 13 28  1  0  0  0  0
 14 29  1  0  0  0  0
 15 30  1  0  0  0  0
M  END
> <Name>
IA_134.cdx

> <SourceTag>
IA_134

> <Gold.Version>
5.2

> <Gold.Id.Protein>
6HGV|6HGV_protein|mol2

> <Gold.Goldscore.Fitness>
51.1769

> <Gold.Goldscore.Internal.Vdw>
-2.8014

> <Gold.Goldscore.Internal.Torsion>
-3.1208

> <Gold.Goldscore.External.Vdw>
37.4507

> <Gold.Goldscore.Internal.HBond>
0.0000

> <Gold.Goldscore.External.HBond>
0.0000

> <Gold.Goldscore.Internal.Correction>
-5.6045

> <Gold.Goldscore.Internal.Vdw.Weighted>
-2.8014

> <Gold.Goldscore.Internal.Torsion.Weighted>
-3.1208

> <Gold.Goldscore.External.Vdw.Weighted>
51.4947

> <Gold.Goldscore.Internal.HBond.Weighted>
0.0000

> <Gold.Goldscore.External.HBond.Weighted>
0.0000

> <Gold.Goldscore.Internal.Correction.Weighted>
-5.6045

> <Gold.Protein.RotatedTorsions>
[ 3781 1176 1175 1172 ] final -107.80 input   60.00 | X-H torsion
[ 3847 1247 1246 1244 ] final  146.57 input   60.00 | X-H torsion
[ 4507 1931 1930 1928 ] final   49.05 input   60.00 | X-H torsion
[ 3677 1070 1069 1066 ] final  -97.71 input   60.00 | X-H torsion
[ 3525  925  924  922 ] final   43.02 input   59.99 | X-H torsion
[ 4531 1957 1955 1953 ] final  102.51 input   60.00 | X-H torsion

> <Gold.Protein.ActiveResidues>
 PHE267  PRO268  MET310  ASP335  TRP336  MET339  TYR343  THR360  PRO361  ILE363 
 PRO371  SER374  ILE375  ASN378  PHE381  TYR383  GLN384  PHE387  LEU408  LEU417 
 MET419  LEU428  TYR466  MET469  ASN472  ASP496  VAL498  LEU499  MET503  HIS524 
 TRP525 

> <Gold.Protein.RotatedAtoms>
   -3.0586  -29.7463  -30.8514 H   0  0  0  0  0  0  0  0  0  0  0  0  # atno 3525 bound_to 925 
  -11.7685  -23.7685  -31.4086 H   0  0  0  0  0  0  0  0  0  0  0  0  # atno 3677 bound_to 1070
   -9.5977  -36.3487  -33.9002 H   0  0  0  0  0  0  0  0  0  0  0  0  # atno 3781 bound_to 1176
  -14.3644  -27.8839  -37.9021 H   0  0  0  0  0  0  0  0  0  0  0  0  # atno 3847 bound_to 1247
  -12.7356  -24.8165  -38.7928 H   0  0  0  0  0  0  0  0  0  0  0  0  # atno 4507 bound_to 1931
   -2.6394  -33.9434  -36.7553 H   0  0  0  0  0  0  0  0  0  0  0  0  # atno 4531 bound_to 1957
   -9.6807  -36.9644  -32.3962 LP  0  0  0  0  0  0  0  0  0  0  0  0  # atno 5205 bound_to 1176
  -10.8354  -37.3238  -33.4935 LP  0  0  0  0  0  0  0  0  0  0  0  0  # atno 5206 bound_to 1176
  -15.3367  -28.9273  -37.1185 LP  0  0  0  0  0  0  0  0  0  0  0  0  # atno 5215 bound_to 1247
  -15.8691  -27.4273  -37.4834 LP  0  0  0  0  0  0  0  0  0  0  0  0  # atno 5216 bound_to 1247
  -13.7022  -25.1246  -40.0651 LP  0  0  0  0  0  0  0  0  0  0  0  0  # atno 5217 bound_to 1931
  -12.7594  -23.7913  -40.0563 LP  0  0  0  0  0  0  0  0  0  0  0  0  # atno 5218 bound_to 1931
  -11.3096  -22.3245  -30.8148 LP  0  0  0  0  0  0  0  0  0  0  0  0  # atno 5224 bound_to 1070
  -12.7772  -22.9352  -30.4410 LP  0  0  0  0  0  0  0  0  0  0  0  0  # atno 5225 bound_to 1070

$$$$
IA_66|SeH_inactivess_minimized|sdf|145|dock1
  -GOLD-   4172122 13D 1   1.00000     0.00000

 42 42  0  0  0  0  0  0  0  0  1 V2000
  -21.2489  -23.0563  -38.7163 C   0  0  0  0  0  0  0  0  0  0  0  0
  -13.6590  -25.5428  -37.2101 C   0  0  0  0  0  0  0  0  0  0  0  0
  -10.8944  -26.8755  -33.5954 C   0  0  0  0  0  0  0  0  0  0  0  0
  -10.7276  -25.3956  -33.9269 C   0  0  0  0  0  0  0  0  0  0  0  0
  -11.8917  -27.5543  -34.5292 C   0  0  0  0  0  0  0  0  0  0  0  0
  -10.3552  -25.1845  -35.3944 C   0  0  0  0  0  0  0  0  0  0  0  0
  -11.5211  -27.3468  -35.9977 C   0  0  0  0  0  0  0  0  0  0  0  0
  -11.3369  -25.8674  -36.3525 C   0  0  0  0  0  0  0  0  0  0  0  0
  -20.0430  -23.5355  -39.4911 C   0  0  0  0  0  0  0  0  0  0  0  0
  -18.7634  -23.4660  -38.6576 C   0  0  0  0  0  0  0  0  0  0  0  0
  -17.5330  -23.8021  -39.5023 C   0  0  0  0  0  0  0  0  0  0  0  0
  -16.2178  -23.7035  -38.7260 C   0  0  0  0  0  0  0  0  0  0  0  0
  -15.9908  -24.8680  -37.7684 C   0  0  0  0  0  0  0  0  0  0  0  0
  -12.6068  -25.1761  -36.3752 N   0  0  0  0  0  0  0  0  0  0  0  0
  -14.7659  -24.7115  -37.0312 N   0  0  0  0  0  0  0  0  0  0  0  0
  -21.2423  -22.6839  -37.5512 O   0  0  0  0  0  0  0  0  0  0  0  0
  -13.6223  -26.4804  -38.0058 O   0  0  0  0  0  0  0  0  0  0  0  0
  -22.3729  -23.0868  -39.4793 O   0  0  0  0  0  0  0  0  0  0  0  0
   -9.9223  -27.3777  -33.6739 H   0  0  0  0  0  0  0  0  0  0  0  0
  -11.2271  -26.9858  -32.5572 H   0  0  0  0  0  0  0  0  0  0  0  0
  -11.6594  -24.8628  -33.7013 H   0  0  0  0  0  0  0  0  0  0  0  0
   -9.9519  -24.9613  -33.2860 H   0  0  0  0  0  0  0  0  0  0  0  0
  -11.9288  -28.6272  -34.3090 H   0  0  0  0  0  0  0  0  0  0  0  0
  -12.8969  -27.1577  -34.3417 H   0  0  0  0  0  0  0  0  0  0  0  0
  -10.3009  -24.1094  -35.6039 H   0  0  0  0  0  0  0  0  0  0  0  0
   -9.3504  -25.5918  -35.5650 H   0  0  0  0  0  0  0  0  0  0  0  0
  -10.5848  -27.8811  -36.2037 H   0  0  0  0  0  0  0  0  0  0  0  0
  -12.2910  -27.8001  -36.6337 H   0  0  0  0  0  0  0  0  0  0  0  0
  -10.9469  -25.7926  -37.3740 H   0  0  0  0  0  0  0  0  0  0  0  0
  -19.9366  -22.9065  -40.3821 H   0  0  0  0  0  0  0  0  0  0  0  0
  -20.2257  -24.5702  -39.8017 H   0  0  0  0  0  0  0  0  0  0  0  0
  -18.8350  -24.1634  -37.8139 H   0  0  0  0  0  0  0  0  0  0  0  0
  -18.6661  -22.4609  -38.2311 H   0  0  0  0  0  0  0  0  0  0  0  0
  -17.6291  -24.8266  -39.8831 H   0  0  0  0  0  0  0  0  0  0  0  0
  -17.4931  -23.1425  -40.3778 H   0  0  0  0  0  0  0  0  0  0  0  0
  -16.2237  -22.7655  -38.1560 H   0  0  0  0  0  0  0  0  0  0  0  0
  -15.3766  -23.6299  -39.4267 H   0  0  0  0  0  0  0  0  0  0  0  0
  -15.9192  -25.8176  -38.3065 H   0  0  0  0  0  0  0  0  0  0  0  0
  -16.8023  -24.9408  -37.0381 H   0  0  0  0  0  0  0  0  0  0  0  0
  -12.7375  -24.3852  -35.7523 H   0  0  0  0  0  0  0  0  0  0  0  0
  -14.7167  -23.9900  -36.3147 H   0  0  0  0  0  0  0  0  0  0  0  0
  -23.1847  -22.7633  -39.0330 H   0  0  0  0  0  0  0  0  0  0  0  0
  1  9  1  0  0  0  0
  1 16  2  0  0  0  0
  1 18  1  0  0  0  0
  2 14  1  0  0  0  0
  2 15  1  0  0  0  0
  2 17  2  0  0  0  0
  3  4  1  0  0  0  0
  3  5  1  0  0  0  0
  4  6  1  0  0  0  0
  5  7  1  0  0  0  0
  6  8  1  0  0  0  0
  7  8  1  0  0  0  0
  8 14  1  0  0  0  0
  9 10  1  0  0  0  0
 10 11  1  0  0  0  0
 11 12  1  0  0  0  0
 12 13  1  0  0  0  0
 13 15  1  0  0  0  0
  3 19  1  0  0  0  0
  3 20  1  0  0  0  0
  4 21  1  0  0  0  0
  4 22  1  0  0  0  0
  5 23  1  0  0  0  0
  5 24  1  0  0  0  0
  6 25  1  0  0  0  0
  6 26  1  0  0  0  0
  7 27  1  0  0  0  0
  7 28  1  0  0  0  0
  8 29  1  0  0  0  0
  9 30  1  0  0  0  0
  9 31  1  0  0  0  0
 10 32  1  0  0  0  0
 10 33  1  0  0  0  0
 11 34  1  0  0  0  0
 11 35  1  0  0  0  0
 12 36  1  0  0  0  0
 12 37  1  0  0  0  0
 13 38  1  0  0  0  0
 13 39  1  0  0  0  0
 14 40  1  0  0  0  0
 15 41  1  0  0  0  0
 18 42  1  0  0  0  0
M  END
> <Name>
IA_66

> <SourceTag>
IA_66

> <Gold.Version>
5.2

> <Gold.Id.Protein>
6HGV|6HGV_protein|mol2

> <Gold.Goldscore.Fitness>
55.1730

> <Gold.Goldscore.Internal.Vdw>
-3.4900

> <Gold.Goldscore.Internal.Torsion>
-2.4220

> <Gold.Goldscore.External.Vdw>
37.3287

> <Gold.Goldscore.Internal.HBond>
0.0000

> <Gold.Goldscore.External.HBond>
5.7040

> <Gold.Goldscore.Internal.Correction>
-4.0540

> <Gold.Goldscore.Hbonds>
donor molecule, donor type, donor heavy atom, donor atom, acceptor molecule, acceptor atom, score
      P1  H  1247  3847       L1    17  0.11
      L1  H    14    40       P1   853  0.26
      L1  H    15    41       P1   853  0.65

> <Gold.Goldscore.Internal.Vdw.Weighted>
-3.4900

> <Gold.Goldscore.Internal.Torsion.Weighted>
-2.4220

> <Gold.Goldscore.External.Vdw.Weighted>
51.3270

> <Gold.Goldscore.Internal.HBond.Weighted>
0.0000

> <Gold.Goldscore.External.HBond.Weighted>
5.7040

> <Gold.Goldscore.Internal.Correction.Weighted>
-4.0540

> <Gold.Protein.RotatedTorsions>
[ 3781 1176 1175 1172 ] final  -48.53 input   60.00 | X-H torsion
[ 3847 1247 1246 1244 ] final  146.72 input   60.00 | X-H torsion
[ 4507 1931 1930 1928 ] final  107.95 input   60.00 | X-H torsion
[ 3677 1070 1069 1066 ] final  -82.29 input   60.00 | X-H torsion
[ 3525  925  924  922 ] final   80.72 input   59.99 | X-H torsion
[ 4531 1957 1955 1953 ] final  177.28 input   60.00 | X-H torsion

> <Gold.Protein.ActiveResidues>
 PHE267  PRO268  MET310  ASP335  TRP336  MET339  TYR343  THR360  PRO361  ILE363 
 PRO371  SER374  ILE375  ASN378  PHE381  TYR383  GLN384  PHE387  LEU408  LEU417 
 MET419  LEU428  TYR466  MET469  ASN472  ASP496  VAL498  LEU499  MET503  HIS524 
 TRP525 

> <Gold.Protein.RotatedAtoms>
   -2.5108  -29.9919  -30.7774 H   0  0  0  0  0  0  0  0  0  0  0  0  # atno 3525 bound_to 925 
  -11.9988  -23.8343  -31.3328 H   0  0  0  0  0  0  0  0  0  0  0  0  # atno 3677 bound_to 1070
  -10.3811  -36.7851  -34.1305 H   0  0  0  0  0  0  0  0  0  0  0  0  # atno 3781 bound_to 1176
  -14.3652  -27.8818  -37.9026 H   0  0  0  0  0  0  0  0  0  0  0  0  # atno 3847 bound_to 1247
  -12.4314  -24.0471  -39.1965 H   0  0  0  0  0  0  0  0  0  0  0  0  # atno 4507 bound_to 1931
   -1.5316  -33.7941  -36.9633 H   0  0  0  0  0  0  0  0  0  0  0  0  # atno 4531 bound_to 1957
   -9.2399  -36.4350  -33.0245 LP  0  0  0  0  0  0  0  0  0  0  0  0  # atno 5205 bound_to 1176
  -10.4872  -37.4137  -32.6333 LP  0  0  0  0  0  0  0  0  0  0  0  0  # atno 5206 bound_to 1176
  -15.3345  -28.9280  -37.1192 LP  0  0  0  0  0  0  0  0  0  0  0  0  # atno 5215 bound_to 1247
  -15.8705  -27.4288  -37.4823 LP  0  0  0  0  0  0  0  0  0  0  0  0  # atno 5216 bound_to 1247
  -13.3823  -25.3672  -39.2295 LP  0  0  0  0  0  0  0  0  0  0  0  0  # atno 5217 bound_to 1931
  -13.3855  -24.3236  -40.4854 LP  0  0  0  0  0  0  0  0  0  0  0  0  # atno 5218 bound_to 1931
  -11.1778  -22.4778  -30.9669 LP  0  0  0  0  0  0  0  0  0  0  0  0  # atno 5224 bound_to 1070
  -12.6771  -22.7155  -30.3652 LP  0  0  0  0  0  0  0  0  0  0  0  0  # atno 5225 bound_to 1070

$$$$
IA_13|SeH_inactivess_minimized|sdf|31|dock9
  -GOLD-   4172119153D 1   1.00000     0.00000

 64 67  0  0  0  0  0  0  0  0  1 V2000
   -8.0940  -33.5705  -34.7619 C   0  0  0  0  0  0  0  0  0  0  0  0
   -8.5128  -30.4883  -35.1012 C   0  0  0  0  0  0  0  0  0  0  0  0
  -13.7863  -25.3504  -36.5844 C   0  0  0  0  0  0  0  0  0  0  0  0
   -5.3780  -32.1779  -34.0381 C   0  0  0  0  0  0  0  0  0  0  0  0
   -5.7492  -32.9021  -35.3298 C   0  0  0  0  0  0  0  0  0  0  0  0
  -18.0558  -25.7209  -38.7317 C   0  0  0  0  0  0  0  0  0  0  0  0
  -17.2327  -24.0333  -40.3941 C   0  0  0  0  0  0  0  0  0  0  0  0
  -18.3417  -23.2709  -38.2780 C   0  0  0  0  0  0  0  0  0  0  0  0
  -15.5931  -25.3752  -39.0529 C   0  0  0  0  0  0  0  0  0  0  0  0
  -16.7034  -24.6121  -36.9347 C   0  0  0  0  0  0  0  0  0  0  0  0
  -15.8793  -22.9214  -38.5993 C   0  0  0  0  0  0  0  0  0  0  0  0
   -6.2283  -30.9178  -34.0872 C   0  0  0  0  0  0  0  0  0  0  0  0
   -7.2316  -32.5897  -35.4977 C   0  0  2  0  0  0  0  0  0  0  0  0
  -16.9578  -25.4085  -39.7623 C   0  0  0  0  0  0  0  0  0  0  0  0
  -18.0727  -24.6423  -37.6354 C   0  0  0  0  0  0  0  0  0  0  0  0
  -17.2453  -22.9455  -39.3065 C   0  0  0  0  0  0  0  0  0  0  0  0
  -15.5854  -24.2919  -37.9517 C   0  0  0  0  0  0  0  0  0  0  0  0
   -8.4565  -29.1088  -34.4949 C   0  0  0  0  0  0  0  0  0  0  0  0
   -9.4914  -28.1877  -35.1335 C   0  0  0  0  0  0  0  0  0  0  0  0
   -9.4644  -26.7744  -34.5422 C   0  0  0  0  0  0  0  0  0  0  0  0
  -10.2706  -25.7983  -35.4050 C   0  0  0  0  0  0  0  0  0  0  0  0
  -11.7760  -26.0020  -35.2660 C   0  0  0  0  0  0  0  0  0  0  0  0
   -7.4117  -31.2938  -34.8564 N   0  0  0  0  0  0  0  0  0  0  0  0
  -14.3019  -24.2648  -37.2851 N   0  0  0  0  0  0  0  0  0  0  0  0
  -12.5381  -25.0531  -36.0430 N   0  0  0  0  0  0  0  0  0  0  0  0
   -8.7500  -33.3167  -33.7627 O   0  0  0  0  0  0  0  0  0  0  0  0
   -9.4953  -30.8405  -35.7562 O   0  0  0  0  0  0  0  0  0  0  0  0
  -14.3564  -26.4334  -36.4582 O   0  0  0  0  0  0  0  0  0  0  0  0
   -8.0479  -34.7881  -35.3557 O   0  0  0  0  0  0  0  0  0  0  0  0
   -5.6600  -32.7887  -33.1723 H   0  0  0  0  0  0  0  0  0  0  0  0
   -4.3087  -31.9605  -33.9643 H   0  0  0  0  0  0  0  0  0  0  0  0
   -5.1822  -32.4688  -36.1628 H   0  0  0  0  0  0  0  0  0  0  0  0
   -5.5276  -33.9726  -35.2826 H   0  0  0  0  0  0  0  0  0  0  0  0
  -19.0329  -25.7659  -39.2281 H   0  0  0  0  0  0  0  0  0  0  0  0
  -17.8802  -26.7069  -38.2843 H   0  0  0  0  0  0  0  0  0  0  0  0
  -16.4647  -23.8047  -41.1432 H   0  0  0  0  0  0  0  0  0  0  0  0
  -18.1957  -24.0485  -40.9194 H   0  0  0  0  0  0  0  0  0  0  0  0
  -19.3239  -23.2721  -38.7661 H   0  0  0  0  0  0  0  0  0  0  0  0
  -18.3718  -22.4942  -37.5039 H   0  0  0  0  0  0  0  0  0  0  0  0
  -15.3754  -26.3602  -38.6197 H   0  0  0  0  0  0  0  0  0  0  0  0
  -14.7979  -25.1786  -39.7842 H   0  0  0  0  0  0  0  0  0  0  0  0
  -16.7122  -23.8631  -36.1320 H   0  0  0  0  0  0  0  0  0  0  0  0
  -16.5110  -25.5787  -36.4506 H   0  0  0  0  0  0  0  0  0  0  0  0
  -15.0913  -22.6647  -39.3194 H   0  0  0  0  0  0  0  0  0  0  0  0
  -15.8692  -22.1302  -37.8379 H   0  0  0  0  0  0  0  0  0  0  0  0
   -6.5070  -30.5584  -33.0929 H   0  0  0  0  0  0  0  0  0  0  0  0
   -5.7166  -30.1140  -34.6276 H   0  0  0  0  0  0  0  0  0  0  0  0
   -7.5487  -32.5571  -36.5444 H   0  0  0  0  0  0  0  0  0  0  0  0
  -16.9511  -26.1790  -40.5414 H   0  0  0  0  0  0  0  0  0  0  0  0
  -18.8573  -24.8691  -36.9051 H   0  0  0  0  0  0  0  0  0  0  0  0
  -17.4435  -21.9689  -39.7621 H   0  0  0  0  0  0  0  0  0  0  0  0
   -7.4440  -28.7104  -34.6117 H   0  0  0  0  0  0  0  0  0  0  0  0
   -8.6687  -29.2120  -33.4257 H   0  0  0  0  0  0  0  0  0  0  0  0
   -9.3280  -28.1355  -36.2170 H   0  0  0  0  0  0  0  0  0  0  0  0
  -10.4869  -28.6210  -34.9774 H   0  0  0  0  0  0  0  0  0  0  0  0
   -8.4294  -26.4208  -34.4668 H   0  0  0  0  0  0  0  0  0  0  0  0
   -9.8735  -26.7988  -33.5252 H   0  0  0  0  0  0  0  0  0  0  0  0
   -9.9767  -25.9074  -36.4563 H   0  0  0  0  0  0  0  0  0  0  0  0
  -10.0287  -24.7710  -35.1068 H   0  0  0  0  0  0  0  0  0  0  0  0
  -12.0771  -25.8735  -34.2217 H   0  0  0  0  0  0  0  0  0  0  0  0
  -12.0685  -27.0074  -35.5852 H   0  0  0  0  0  0  0  0  0  0  0  0
  -13.7517  -23.4138  -37.3306 H   0  0  0  0  0  0  0  0  0  0  0  0
  -12.1241  -24.1468  -36.2378 H   0  0  0  0  0  0  0  0  0  0  0  0
   -8.6145  -35.4425  -34.8941 H   0  0  0  0  0  0  0  0  0  0  0  0
  1 13  1  0  0  0  0
  1 26  2  0  0  0  0
  1 29  1  0  0  0  0
  2 18  1  0  0  0  0
  2 23  1  0  0  0  0
  2 27  2  0  0  0  0
  3 24  1  0  0  0  0
  3 25  1  0  0  0  0
  3 28  2  0  0  0  0
  4  5  1  0  0  0  0
  4 12  1  0  0  0  0
  5 13  1  0  0  0  0
  6 14  1  0  0  0  0
  6 15  1  0  0  0  0
  7 14  1  0  0  0  0
  7 16  1  0  0  0  0
  8 15  1  0  0  0  0
  8 16  1  0  0  0  0
  9 14  1  0  0  0  0
  9 17  1  0  0  0  0
 10 15  1  0  0  0  0
 10 17  1  0  0  0  0
 11 16  1  0  0  0  0
 11 17  1  0  0  0  0
 12 23  1  0  0  0  0
 13 23  1  0  0  0  0
 17 24  1  0  0  0  0
 18 19  1  0  0  0  0
 19 20  1  0  0  0  0
 20 21  1  0  0  0  0
 21 22  1  0  0  0  0
 22 25  1  0  0  0  0
  4 30  1  0  0  0  0
  4 31  1  0  0  0  0
  5 32  1  0  0  0  0
  5 33  1  0  0  0  0
  6 34  1  0  0  0  0
  6 35  1  0  0  0  0
  7 36  1  0  0  0  0
  7 37  1  0  0  0  0
  8 38  1  0  0  0  0
  8 39  1  0  0  0  0
  9 40  1  0  0  0  0
  9 41  1  0  0  0  0
 10 42  1  0  0  0  0
 10 43  1  0  0  0  0
 11 44  1  0  0  0  0
 11 45  1  0  0  0  0
 12 46  1  0  0  0  0
 12 47  1  0  0  0  0
 13 48  1  0  0  0  0
 14 49  1  0  0  0  0
 15 50  1  0  0  0  0
 16 51  1  0  0  0  0
 18 52  1  0  0  0  0
 18 53  1  0  0  0  0
 19 54  1  0  0  0  0
 19 55  1  0  0  0  0
 20 56  1  0  0  0  0
 20 57  1  0  0  0  0
 21 58  1  0  0  0  0
 21 59  1  0  0  0  0
 22 60  1  0  0  0  0
 22 61  1  0  0  0  0
 24 62  1  0  0  0  0
 25 63  1  0  0  0  0
 29 64  1  0  0  0  0
M  END
> <Name>
IA_13

> <SourceTag>
IA_13

> <Gold.Version>
5.2

> <Gold.Id.Protein>
6HGV|6HGV_protein|mol2

> <Gold.Goldscore.Fitness>
63.1898

> <Gold.Goldscore.Internal.Vdw>
-3.9853

> <Gold.Goldscore.Internal.Torsion>
-3.3662

> <Gold.Goldscore.External.Vdw>
44.8784

> <Gold.Goldscore.Internal.HBond>
0.0000

> <Gold.Goldscore.External.HBond>
2.9879

> <Gold.Goldscore.Internal.Correction>
-5.8457

> <Gold.Goldscore.Hbonds>
donor molecule, donor type, donor heavy atom, donor atom, acceptor molecule, acceptor atom, score
      L1  H    24    62       P1   854  0.22
      L1  H    25    63       P1   854  0.05
      L1  H    29    64       P1  1176  0.68

> <Gold.Goldscore.Internal.Vdw.Weighted>
-3.9853

> <Gold.Goldscore.Internal.Torsion.Weighted>
-3.3662

> <Gold.Goldscore.External.Vdw.Weighted>
61.7078

> <Gold.Goldscore.Internal.HBond.Weighted>
0.0000

> <Gold.Goldscore.External.HBond.Weighted>
2.9879

> <Gold.Goldscore.Internal.Correction.Weighted>
-5.8457

> <Gold.Protein.RotatedTorsions>
[ 3781 1176 1175 1172 ] final  151.09 input   60.00 | X-H torsion
[ 3847 1247 1246 1244 ] final  -32.45 input   60.00 | X-H torsion
[ 4507 1931 1930 1928 ] final  127.18 input   60.00 | X-H torsion
[ 3677 1070 1069 1066 ] final  -98.86 input   60.00 | X-H torsion
[ 3525  925  924  922 ] final   43.37 input   59.99 | X-H torsion
[ 4531 1957 1955 1953 ] final   53.87 input   60.00 | X-H torsion

> <Gold.Protein.ActiveResidues>
 PHE267  PRO268  MET310  ASP335  TRP336  MET339  TYR343  THR360  PRO361  ILE363 
 PRO371  SER374  ILE375  ASN378  PHE381  TYR383  GLN384  PHE387  LEU408  LEU417 
 MET419  LEU428  TYR466  MET469  ASN472  ASP496  VAL498  LEU499  MET503  HIS524 
 TRP525 

> <Gold.Protein.RotatedAtoms>
   -3.0534  -29.7484  -30.8525 H   0  0  0  0  0  0  0  0  0  0  0  0  # atno 3525 bound_to 925 
  -11.7517  -23.7613  -31.4127 H   0  0  0  0  0  0  0  0  0  0  0  0  # atno 3677 bound_to 1070
   -9.4709  -36.7789  -32.5256 H   0  0  0  0  0  0  0  0  0  0  0  0  # atno 3781 bound_to 1176
  -16.0076  -28.2899  -37.1018 H   0  0  0  0  0  0  0  0  0  0  0  0  # atno 3847 bound_to 1247
  -12.4673  -23.8797  -39.4583 H   0  0  0  0  0  0  0  0  0  0  0  0  # atno 4507 bound_to 1931
   -3.0810  -33.3182  -36.6606 H   0  0  0  0  0  0  0  0  0  0  0  0  # atno 4531 bound_to 1957
  -10.8083  -37.4158  -33.1993 LP  0  0  0  0  0  0  0  0  0  0  0  0  # atno 5205 bound_to 1176
   -9.8356  -36.4390  -34.0747 LP  0  0  0  0  0  0  0  0  0  0  0  0  # atno 5206 bound_to 1176
  -15.0539  -27.2259  -37.8804 LP  0  0  0  0  0  0  0  0  0  0  0  0  # atno 5215 bound_to 1247
  -14.4970  -28.7198  -37.5275 LP  0  0  0  0  0  0  0  0  0  0  0  0  # atno 5216 bound_to 1247
  -13.1826  -25.2696  -39.0062 LP  0  0  0  0  0  0  0  0  0  0  0  0  # atno 5217 bound_to 1931
  -13.5490  -24.5898  -40.4450 LP  0  0  0  0  0  0  0  0  0  0  0  0  # atno 5218 bound_to 1931
  -11.3214  -22.3150  -30.8036 LP  0  0  0  0  0  0  0  0  0  0  0  0  # atno 5224 bound_to 1070
  -12.7824  -22.9519  -30.4480 LP  0  0  0  0  0  0  0  0  0  0  0  0  # atno 5225 bound_to 1070

$$$$
IA_90.cdx|SeH_inactivess_minimized|sdf|169|dock4
  -GOLD-   41821 8223D 1   1.00000     0.00000

 51 50  0  0  0  0  0  0  0  0  1 V2000
   -4.3618  -31.5806  -34.8940 C   0  0  0  0  0  0  0  0  0  0  0  0
   -4.5786  -30.3949  -34.3137 C   0  0  0  0  0  0  0  0  0  0  0  0
   -7.2120  -28.8393  -34.3852 C   0  0  0  0  0  0  0  0  0  0  0  0
  -20.6982  -23.4718  -39.6336 C   0  0  0  0  0  0  0  0  0  0  0  0
   -5.5065  -30.1887  -33.1616 C   0  0  0  0  0  0  0  0  0  0  0  0
  -20.7507  -23.2662  -38.1282 C   0  0  0  0  0  0  0  0  0  0  0  0
  -19.9381  -24.3301  -37.3884 C   0  0  0  0  0  0  0  0  0  0  0  0
  -18.4518  -24.2344  -37.7395 C   0  0  0  0  0  0  0  0  0  0  0  0
  -17.5519  -25.0489  -36.8054 C   0  0  0  0  0  0  0  0  0  0  0  0
  -16.0698  -24.9909  -37.1848 C   0  0  0  0  0  0  0  0  0  0  0  0
  -15.2038  -25.6869  -36.1312 C   0  0  0  0  0  0  0  0  0  0  0  0
  -13.7252  -25.7759  -36.5199 C   0  0  0  0  0  0  0  0  0  0  0  0
  -12.8644  -26.4938  -35.4781 C   0  0  0  0  0  0  0  0  0  0  0  0
  -11.4381  -26.7097  -35.9913 C   0  0  0  0  0  0  0  0  0  0  0  0
  -10.6388  -27.6104  -35.0445 C   0  0  0  0  0  0  0  0  0  0  0  0
   -9.1989  -27.8405  -35.5070 C   0  0  0  0  0  0  0  0  0  0  0  0
   -6.8411  -29.9763  -33.6723 N   0  0  0  0  0  0  0  0  0  0  0  0
   -8.5468  -28.9021  -34.7502 N   0  0  0  0  0  0  0  0  0  0  0  0
   -6.4544  -27.9077  -34.6533 O   0  0  0  0  0  0  0  0  0  0  0  0
   -3.6698  -31.6667  -35.7245 H   0  0  0  0  0  0  0  0  0  0  0  0
   -4.8663  -32.4790  -34.5557 H   0  0  0  0  0  0  0  0  0  0  0  0
   -4.0417  -29.5269  -34.6884 H   0  0  0  0  0  0  0  0  0  0  0  0
  -20.8975  -24.5196  -39.8802 H   0  0  0  0  0  0  0  0  0  0  0  0
  -21.4475  -22.8552  -40.1403 H   0  0  0  0  0  0  0  0  0  0  0  0
  -19.7122  -23.2107  -40.0308 H   0  0  0  0  0  0  0  0  0  0  0  0
   -5.2004  -29.3051  -32.5931 H   0  0  0  0  0  0  0  0  0  0  0  0
   -5.5220  -31.0455  -32.4805 H   0  0  0  0  0  0  0  0  0  0  0  0
  -21.7955  -23.2981  -37.7977 H   0  0  0  0  0  0  0  0  0  0  0  0
  -20.3644  -22.2690  -37.8874 H   0  0  0  0  0  0  0  0  0  0  0  0
  -20.3238  -25.3213  -37.6515 H   0  0  0  0  0  0  0  0  0  0  0  0
  -20.0695  -24.2060  -36.3069 H   0  0  0  0  0  0  0  0  0  0  0  0
  -18.2941  -24.5571  -38.7758 H   0  0  0  0  0  0  0  0  0  0  0  0
  -18.1382  -23.1844  -37.6850 H   0  0  0  0  0  0  0  0  0  0  0  0
  -17.8898  -26.0921  -36.7875 H   0  0  0  0  0  0  0  0  0  0  0  0
  -17.6758  -24.6595  -35.7872 H   0  0  0  0  0  0  0  0  0  0  0  0
  -15.9113  -25.4745  -38.1550 H   0  0  0  0  0  0  0  0  0  0  0  0
  -15.7672  -23.9430  -37.2867 H   0  0  0  0  0  0  0  0  0  0  0  0
  -15.3000  -25.1672  -35.1702 H   0  0  0  0  0  0  0  0  0  0  0  0
  -15.5782  -26.7067  -35.9775 H   0  0  0  0  0  0  0  0  0  0  0  0
  -13.3301  -24.7680  -36.6963 H   0  0  0  0  0  0  0  0  0  0  0  0
  -13.6552  -26.3133  -37.4738 H   0  0  0  0  0  0  0  0  0  0  0  0
  -13.3166  -27.4621  -35.2320 H   0  0  0  0  0  0  0  0  0  0  0  0
  -12.8261  -25.9074  -34.5534 H   0  0  0  0  0  0  0  0  0  0  0  0
  -11.4718  -27.1657  -36.9883 H   0  0  0  0  0  0  0  0  0  0  0  0
  -10.9411  -25.7380  -36.0956 H   0  0  0  0  0  0  0  0  0  0  0  0
  -10.6397  -27.1794  -34.0353 H   0  0  0  0  0  0  0  0  0  0  0  0
  -11.1366  -28.5853  -34.9697 H   0  0  0  0  0  0  0  0  0  0  0  0
   -9.2009  -28.1095  -36.5690 H   0  0  0  0  0  0  0  0  0  0  0  0
   -8.6203  -26.9162  -35.4042 H   0  0  0  0  0  0  0  0  0  0  0  0
   -7.5424  -30.6905  -33.5032 H   0  0  0  0  0  0  0  0  0  0  0  0
   -9.0906  -29.7232  -34.5319 H   0  0  0  0  0  0  0  0  0  0  0  0
  1  2  2  0  0  0  0
  2  5  1  0  0  0  0
  3 17  1  0  0  0  0
  3 18  1  0  0  0  0
  3 19  2  0  0  0  0
  4  6  1  0  0  0  0
  5 17  1  0  0  0  0
  6  7  1  0  0  0  0
  7  8  1  0  0  0  0
  8  9  1  0  0  0  0
  9 10  1  0  0  0  0
 10 11  1  0  0  0  0
 11 12  1  0  0  0  0
 12 13  1  0  0  0  0
 13 14  1  0  0  0  0
 14 15  1  0  0  0  0
 15 16  1  0  0  0  0
 16 18  1  0  0  0  0
  1 20  1  0  0  0  0
  1 21  1  0  0  0  0
  2 22  1  0  0  0  0
  4 23  1  0  0  0  0
  4 24  1  0  0  0  0
  4 25  1  0  0  0  0
  5 26  1  0  0  0  0
  5 27  1  0  0  0  0
  6 28  1  0  0  0  0
  6 29  1  0  0  0  0
  7 30  1  0  0  0  0
  7 31  1  0  0  0  0
  8 32  1  0  0  0  0
  8 33  1  0  0  0  0
  9 34  1  0  0  0  0
  9 35  1  0  0  0  0
 10 36  1  0  0  0  0
 10 37  1  0  0  0  0
 11 38  1  0  0  0  0
 11 39  1  0  0  0  0
 12 40  1  0  0  0  0
 12 41  1  0  0  0  0
 13 42  1  0  0  0  0
 13 43  1  0  0  0  0
 14 44  1  0  0  0  0
 14 45  1  0  0  0  0
 15 46  1  0  0  0  0
 15 47  1  0  0  0  0
 16 48  1  0  0  0  0
 16 49  1  0  0  0  0
 17 50  1  0  0  0  0
 18 51  1  0  0  0  0
M  END
> <Name>
IA_90.cdx

> <SourceTag>
IA_90

> <Gold.Version>
5.2

> <Gold.Id.Protein>
6HGV|6HGV_protein|mol2

> <Gold.Goldscore.Fitness>
59.8307

> <Gold.Goldscore.Internal.Vdw>
-4.9844

> <Gold.Goldscore.Internal.Torsion>
-3.3784

> <Gold.Goldscore.External.Vdw>
44.9288

> <Gold.Goldscore.Internal.HBond>
0.0000

> <Gold.Goldscore.External.HBond>
0.0000

> <Gold.Goldscore.Internal.Correction>
-6.4163

> <Gold.Goldscore.Internal.Vdw.Weighted>
-4.9844

> <Gold.Goldscore.Internal.Torsion.Weighted>
-3.3784

> <Gold.Goldscore.External.Vdw.Weighted>
61.7771

> <Gold.Goldscore.Internal.HBond.Weighted>
0.0000

> <Gold.Goldscore.External.HBond.Weighted>
0.0000

> <Gold.Goldscore.Internal.Correction.Weighted>
-6.4163

> <Gold.Protein.RotatedTorsions>
[ 3781 1176 1175 1172 ] final  -27.14 input   60.00 | X-H torsion
[ 3847 1247 1246 1244 ] final   80.99 input   60.00 | X-H torsion
[ 4507 1931 1930 1928 ] final   91.96 input   60.00 | X-H torsion
[ 3677 1070 1069 1066 ] final  -99.25 input   60.00 | X-H torsion
[ 3525  925  924  922 ] final   35.90 input   59.99 | X-H torsion
[ 4531 1957 1955 1953 ] final   82.46 input   60.00 | X-H torsion

> <Gold.Protein.ActiveResidues>
 PHE267  PRO268  MET310  ASP335  TRP336  MET339  TYR343  THR360  PRO361  ILE363 
 PRO371  SER374  ILE375  ASN378  PHE381  TYR383  GLN384  PHE387  LEU408  LEU417 
 MET419  LEU428  TYR466  MET469  ASN472  ASP496  VAL498  LEU499  MET503  HIS524 
 TRP525 

> <Gold.Protein.RotatedAtoms>
   -3.1624  -29.7038  -30.8207 H   0  0  0  0  0  0  0  0  0  0  0  0  # atno 3525 bound_to 925 
  -11.7460  -23.7588  -31.4141 H   0  0  0  0  0  0  0  0  0  0  0  0  # atno 3677 bound_to 1070
  -10.6181  -36.9962  -33.9891 H   0  0  0  0  0  0  0  0  0  0  0  0  # atno 3781 bound_to 1176
  -14.5700  -28.7817  -37.4779 H   0  0  0  0  0  0  0  0  0  0  0  0  # atno 3847 bound_to 1247
  -12.4554  -24.2325  -39.0152 H   0  0  0  0  0  0  0  0  0  0  0  0  # atno 4507 bound_to 1931
   -2.8845  -33.7344  -36.7051 H   0  0  0  0  0  0  0  0  0  0  0  0  # atno 4531 bound_to 1957
   -9.2733  -36.3325  -33.3574 LP  0  0  0  0  0  0  0  0  0  0  0  0  # atno 5205 bound_to 1176
  -10.2152  -37.3035  -32.4427 LP  0  0  0  0  0  0  0  0  0  0  0  0  # atno 5206 bound_to 1176
  -16.0439  -28.1906  -37.1228 LP  0  0  0  0  0  0  0  0  0  0  0  0  # atno 5215 bound_to 1247
  -14.9548  -27.2598  -37.9063 LP  0  0  0  0  0  0  0  0  0  0  0  0  # atno 5216 bound_to 1247
  -13.5223  -25.3814  -39.4508 LP  0  0  0  0  0  0  0  0  0  0  0  0  # atno 5217 bound_to 1931
  -13.2214  -24.1227  -40.4466 LP  0  0  0  0  0  0  0  0  0  0  0  0  # atno 5218 bound_to 1931
  -11.3255  -22.3118  -30.7998 LP  0  0  0  0  0  0  0  0  0  0  0  0  # atno 5224 bound_to 1070
  -12.7841  -22.9576  -30.4505 LP  0  0  0  0  0  0  0  0  0  0  0  0  # atno 5225 bound_to 1070

$$$$
IA_118.cdx|SeH_inactivess_minimized|sdf|20|dock7
  -GOLD-   4172118563D 1   1.00000     0.00000

 24 24  0  0  0  0  0  0  0  0  1 V2000
   -9.1916  -27.0560  -34.7974 C   0  0  0  0  0  0  0  0  0  0  0  0
   -9.7664  -27.5264  -35.9779 C   0  0  0  0  0  0  0  0  0  0  0  0
   -9.6395  -25.8627  -34.2307 C   0  0  0  0  0  0  0  0  0  0  0  0
  -10.7892  -26.8035  -36.5919 C   0  0  0  0  0  0  0  0  0  0  0  0
  -10.6624  -25.1398  -34.8447 C   0  0  0  0  0  0  0  0  0  0  0  0
  -11.2372  -25.6103  -36.0253 C   0  0  0  0  0  0  0  0  0  0  0  0
  -13.3451  -25.3737  -37.3971 C   0  0  0  0  0  0  0  0  0  0  0  0
  -16.3176  -23.4171  -38.4434 C   0  0  0  0  0  0  0  0  0  0  0  0
  -15.3398  -24.5249  -38.6419 C   0  0  0  0  0  0  0  0  0  0  0  0
  -12.2605  -24.8875  -36.6395 N   0  0  0  0  0  0  0  0  0  0  0  0
  -14.1539  -24.3229  -37.8417 N   0  0  0  0  0  0  0  0  0  0  0  0
  -13.5773  -26.5533  -37.6505 O   0  0  0  0  0  0  0  0  0  0  0  0
   -8.3956  -27.6190  -34.3186 H   0  0  0  0  0  0  0  0  0  0  0  0
   -9.4184  -28.4558  -36.4189 H   0  0  0  0  0  0  0  0  0  0  0  0
   -9.1924  -25.4971  -33.3108 H   0  0  0  0  0  0  0  0  0  0  0  0
  -11.2298  -27.1801  -37.5117 H   0  0  0  0  0  0  0  0  0  0  0  0
  -11.0035  -24.2111  -34.3938 H   0  0  0  0  0  0  0  0  0  0  0  0
  -16.6353  -23.3592  -37.3967 H   0  0  0  0  0  0  0  0  0  0  0  0
  -15.8851  -22.4564  -38.7432 H   0  0  0  0  0  0  0  0  0  0  0  0
  -17.2086  -23.5939  -39.0577 H   0  0  0  0  0  0  0  0  0  0  0  0
  -15.0300  -24.5797  -39.6898 H   0  0  0  0  0  0  0  0  0  0  0  0
  -15.7772  -25.4850  -38.3530 H   0  0  0  0  0  0  0  0  0  0  0  0
  -12.2323  -23.8680  -36.5331 H   0  0  0  0  0  0  0  0  0  0  0  0
  -13.8956  -23.3739  -37.5903 H   0  0  0  0  0  0  0  0  0  0  0  0
  1  2  2  0  0  0  0
  1  3  1  0  0  0  0
  2  4  1  0  0  0  0
  3  5  2  0  0  0  0
  4  6  2  0  0  0  0
  5  6  1  0  0  0  0
  6 10  1  0  0  0  0
  7 10  1  0  0  0  0
  7 11  1  0  0  0  0
  7 12  2  0  0  0  0
  8  9  1  0  0  0  0
  9 11  1  0  0  0  0
  1 13  1  0  0  0  0
  2 14  1  0  0  0  0
  3 15  1  0  0  0  0
  4 16  1  0  0  0  0
  5 17  1  0  0  0  0
  8 18  1  0  0  0  0
  8 19  1  0  0  0  0
  8 20  1  0  0  0  0
  9 21  1  0  0  0  0
  9 22  1  0  0  0  0
 10 23  1  0  0  0  0
 11 24  1  0  0  0  0
M  END
> <Name>
IA_118.cdx

> <SourceTag>
IA_118

> <Gold.Version>
5.2

> <Gold.Id.Protein>
6HGV|6HGV_protein|mol2

> <Gold.Goldscore.Fitness>
47.7599

> <Gold.Goldscore.Internal.Vdw>
-1.2979

> <Gold.Goldscore.Internal.Torsion>
-2.3579

> <Gold.Goldscore.External.Vdw>
30.8435

> <Gold.Goldscore.Internal.HBond>
0.0000

> <Gold.Goldscore.External.HBond>
5.8378

> <Gold.Goldscore.Internal.Correction>
-3.1681

> <Gold.Goldscore.Hbonds>
donor molecule, donor type, donor heavy atom, donor atom, acceptor molecule, acceptor atom, score
      P1  H  1247  3847       L1    12  0.21
      L1  H    10    23       P1   854  0.60
      L1  H    11    24       P1   854  0.30

> <Gold.Goldscore.Internal.Vdw.Weighted>
-1.2979

> <Gold.Goldscore.Internal.Torsion.Weighted>
-2.3579

> <Gold.Goldscore.External.Vdw.Weighted>
42.4098

> <Gold.Goldscore.Internal.HBond.Weighted>
0.0000

> <Gold.Goldscore.External.HBond.Weighted>
5.8378

> <Gold.Goldscore.Internal.Correction.Weighted>
-3.1681

> <Gold.Protein.RotatedTorsions>
[ 3781 1176 1175 1172 ] final   92.43 input   60.00 | X-H torsion
[ 3847 1247 1246 1244 ] final  155.82 input   60.00 | X-H torsion
[ 4507 1931 1930 1928 ] final  145.15 input   60.00 | X-H torsion
[ 3677 1070 1069 1066 ] final -123.74 input   60.00 | X-H torsion
[ 3525  925  924  922 ] final   55.43 input   59.99 | X-H torsion
[ 4531 1957 1955 1953 ] final   41.05 input   60.00 | X-H torsion

> <Gold.Protein.ActiveResidues>
 PHE267  PRO268  MET310  ASP335  TRP336  MET339  TYR343  THR360  PRO361  ILE363 
 PRO371  SER374  ILE375  ASN378  PHE381  TYR383  GLN384  PHE387  LEU408  LEU417 
 MET419  LEU428  TYR466  MET469  ASN472  ASP496  VAL498  LEU499  MET503  HIS524 
 TRP525 

> <Gold.Protein.RotatedAtoms>
   -2.8733  -29.8253  -30.8710 H   0  0  0  0  0  0  0  0  0  0  0  0  # atno 3525 bound_to 925 
  -11.4177  -23.5381  -31.4498 H   0  0  0  0  0  0  0  0  0  0  0  0  # atno 3677 bound_to 1070
  -10.2185  -37.3053  -32.4519 H   0  0  0  0  0  0  0  0  0  0  0  0  # atno 3781 bound_to 1176
  -14.4242  -27.7482  -37.9305 H   0  0  0  0  0  0  0  0  0  0  0  0  # atno 3847 bound_to 1247
  -12.5612  -23.7935  -39.7215 H   0  0  0  0  0  0  0  0  0  0  0  0  # atno 4507 bound_to 1931
   -3.0986  -33.1101  -36.6536 H   0  0  0  0  0  0  0  0  0  0  0  0  # atno 4531 bound_to 1957
  -10.6194  -36.9909  -33.9974 LP  0  0  0  0  0  0  0  0  0  0  0  0  # atno 5205 bound_to 1176
   -9.2716  -36.3339  -33.3507 LP  0  0  0  0  0  0  0  0  0  0  0  0  # atno 5206 bound_to 1176
  -15.1945  -28.9585  -37.1625 LP  0  0  0  0  0  0  0  0  0  0  0  0  # atno 5215 bound_to 1247
  -15.9511  -27.5328  -37.4108 LP  0  0  0  0  0  0  0  0  0  0  0  0  # atno 5216 bound_to 1247
  -12.9838  -25.1083  -38.8607 LP  0  0  0  0  0  0  0  0  0  0  0  0  # atno 5217 bound_to 1931
  -13.6533  -24.8379  -40.3254 LP  0  0  0  0  0  0  0  0  0  0  0  0  # atno 5218 bound_to 1931
  -11.6304  -22.1819  -30.5759 LP  0  0  0  0  0  0  0  0  0  0  0  0  # atno 5224 bound_to 1070
  -12.8097  -23.3098  -30.6384 LP  0  0  0  0  0  0  0  0  0  0  0  0  # atno 5225 bound_to 1070

$$$$
IA_165.cdx|SeH_inactivess_minimized|sdf|67|dock10
  -GOLD-   4172120 63D 1   1.00000     0.00000

 32 31  0  0  0  0  0  0  0  0  1 V2000
  -14.4466  -25.9693  -36.7432 C   0  0  0  0  0  0  0  0  0  0  0  0
  -19.3640  -23.7481  -38.1240 C   0  0  0  0  0  0  0  0  0  0  0  0
   -9.4294  -25.9771  -34.3796 C   0  0  0  0  0  0  0  0  0  0  0  0
  -18.8248  -24.5474  -36.9479 C   0  0  0  0  0  0  0  0  0  0  0  0
  -10.8003  -25.5854  -33.8504 C   0  0  0  0  0  0  0  0  0  0  0  0
  -17.2950  -24.5258  -36.9122 C   0  0  0  0  0  0  0  0  0  0  0  0
  -11.7258  -25.1286  -34.9804 C   0  0  0  0  0  0  0  0  0  0  0  0
  -16.6723  -25.5436  -37.8620 C   0  0  0  0  0  0  0  0  0  0  0  0
  -12.0566  -26.2520  -35.9572 C   0  0  0  0  0  0  0  0  0  0  0  0
  -15.2366  -25.5387  -37.8063 N   0  0  0  0  0  0  0  0  0  0  0  0
  -13.0787  -25.8712  -36.9125 N   0  0  0  0  0  0  0  0  0  0  0  0
  -15.0372  -26.5871  -35.2951 S   0  0  0  0  0  0  0  0  0  0  0  0
  -19.0470  -22.7019  -38.0654 H   0  0  0  0  0  0  0  0  0  0  0  0
  -18.9927  -24.1634  -39.0662 H   0  0  0  0  0  0  0  0  0  0  0  0
  -20.4580  -23.7753  -38.1487 H   0  0  0  0  0  0  0  0  0  0  0  0
   -9.4877  -26.8887  -34.9829 H   0  0  0  0  0  0  0  0  0  0  0  0
   -9.0238  -25.1785  -35.0087 H   0  0  0  0  0  0  0  0  0  0  0  0
   -8.7270  -26.1524  -33.5585 H   0  0  0  0  0  0  0  0  0  0  0  0
  -19.2245  -24.1295  -36.0166 H   0  0  0  0  0  0  0  0  0  0  0  0
  -19.1878  -25.5786  -37.0238 H   0  0  0  0  0  0  0  0  0  0  0  0
  -11.2430  -26.4433  -33.3309 H   0  0  0  0  0  0  0  0  0  0  0  0
  -10.6798  -24.7850  -33.1119 H   0  0  0  0  0  0  0  0  0  0  0  0
  -16.9358  -23.5191  -37.1598 H   0  0  0  0  0  0  0  0  0  0  0  0
  -16.9566  -24.7477  -35.8928 H   0  0  0  0  0  0  0  0  0  0  0  0
  -12.6516  -24.7217  -34.5553 H   0  0  0  0  0  0  0  0  0  0  0  0
  -11.2408  -24.3161  -35.5350 H   0  0  0  0  0  0  0  0  0  0  0  0
  -16.9686  -25.3534  -38.8983 H   0  0  0  0  0  0  0  0  0  0  0  0
  -16.9988  -26.5535  -37.5942 H   0  0  0  0  0  0  0  0  0  0  0  0
  -12.4054  -27.1463  -35.4313 H   0  0  0  0  0  0  0  0  0  0  0  0
  -11.1656  -26.5213  -36.5331 H   0  0  0  0  0  0  0  0  0  0  0  0
  -14.7514  -25.1826  -38.6301 H   0  0  0  0  0  0  0  0  0  0  0  0
  -12.7563  -25.4932  -37.7983 H   0  0  0  0  0  0  0  0  0  0  0  0
  1 10  1  0  0  0  0
  1 11  1  0  0  0  0
  1 12  2  0  0  0  0
  2  4  1  0  0  0  0
  3  5  1  0  0  0  0
  4  6  1  0  0  0  0
  5  7  1  0  0  0  0
  6  8  1  0  0  0  0
  7  9  1  0  0  0  0
  8 10  1  0  0  0  0
  9 11  1  0  0  0  0
  2 13  1  0  0  0  0
  2 14  1  0  0  0  0
  2 15  1  0  0  0  0
  3 16  1  0  0  0  0
  3 17  1  0  0  0  0
  3 18  1  0  0  0  0
  4 19  1  0  0  0  0
  4 20  1  0  0  0  0
  5 21  1  0  0  0  0
  5 22  1  0  0  0  0
  6 23  1  0  0  0  0
  6 24  1  0  0  0  0
  7 25  1  0  0  0  0
  7 26  1  0  0  0  0
  8 27  1  0  0  0  0
  8 28  1  0  0  0  0
  9 29  1  0  0  0  0
  9 30  1  0  0  0  0
 10 31  1  0  0  0  0
 11 32  1  0  0  0  0
M  END
> <Name>
IA_165.cdx

> <SourceTag>
IA_165

> <Gold.Version>
5.2

> <Gold.Id.Protein>
6HGV|6HGV_protein|mol2

> <Gold.Goldscore.Fitness>
50.6565

> <Gold.Goldscore.Internal.Vdw>
-3.9030

> <Gold.Goldscore.Internal.Torsion>
-2.4418

> <Gold.Goldscore.External.Vdw>
37.3482

> <Gold.Goldscore.Internal.HBond>
0.0000

> <Gold.Goldscore.External.HBond>
2.0846

> <Gold.Goldscore.Internal.Correction>
-3.5630

> <Gold.Goldscore.Hbonds>
donor molecule, donor type, donor heavy atom, donor atom, acceptor molecule, acceptor atom, score
      L1  H    10    31       P1  1931  0.34
      L1  H    11    32       P1  1931  0.70

> <Gold.Goldscore.Internal.Vdw.Weighted>
-3.9030

> <Gold.Goldscore.Internal.Torsion.Weighted>
-2.4418

> <Gold.Goldscore.External.Vdw.Weighted>
51.3537

> <Gold.Goldscore.Internal.HBond.Weighted>
0.0000

> <Gold.Goldscore.External.HBond.Weighted>
2.0846

> <Gold.Goldscore.Internal.Correction.Weighted>
-3.5630

> <Gold.Protein.RotatedTorsions>
[ 3781 1176 1175 1172 ] final   26.29 input   60.00 | X-H torsion
[ 3847 1247 1246 1244 ] final   81.22 input   60.00 | X-H torsion
[ 4507 1931 1930 1928 ] final  126.14 input   60.00 | X-H torsion
[ 3677 1070 1069 1066 ] final  -76.62 input   60.00 | X-H torsion
[ 3525  925  924  922 ] final  150.21 input   59.99 | X-H torsion
[ 4531 1957 1955 1953 ] final -159.47 input   60.00 | X-H torsion

> <Gold.Protein.ActiveResidues>
 PHE267  PRO268  MET310  ASP335  TRP336  MET339  TYR343  THR360  PRO361  ILE363 
 PRO371  SER374  ILE375  ASN378  PHE381  TYR383  GLN384  PHE387  LEU408  LEU417 
 MET419  LEU428  TYR466  MET469  ASN472  ASP496  VAL498  LEU499  MET503  HIS524 
 TRP525 

> <Gold.Protein.RotatedAtoms>
   -2.0623  -30.2722  -29.8505 H   0  0  0  0  0  0  0  0  0  0  0  0  # atno 3525 bound_to 925 
  -12.0835  -23.8438  -31.2966 H   0  0  0  0  0  0  0  0  0  0  0  0  # atno 3677 bound_to 1070
  -10.8165  -37.3959  -33.2753 H   0  0  0  0  0  0  0  0  0  0  0  0  # atno 3781 bound_to 1176
  -14.5675  -28.7796  -37.4797 H   0  0  0  0  0  0  0  0  0  0  0  0  # atno 3847 bound_to 1247
  -12.4636  -23.8869  -39.4433 H   0  0  0  0  0  0  0  0  0  0  0  0  # atno 4507 bound_to 1931
   -1.3262  -33.4792  -36.9969 H   0  0  0  0  0  0  0  0  0  0  0  0  # atno 4531 bound_to 1957
   -9.7715  -36.4096  -34.0390 LP  0  0  0  0  0  0  0  0  0  0  0  0  # atno 5205 bound_to 1176
   -9.5172  -36.8239  -32.4800 LP  0  0  0  0  0  0  0  0  0  0  0  0  # atno 5206 bound_to 1176
  -16.0430  -28.1942  -37.1218 LP  0  0  0  0  0  0  0  0  0  0  0  0  # atno 5215 bound_to 1247
  -14.9583  -27.2584  -37.9055 LP  0  0  0  0  0  0  0  0  0  0  0  0  # atno 5216 bound_to 1247
  -13.1941  -25.2770  -39.0167 LP  0  0  0  0  0  0  0  0  0  0  0  0  # atno 5217 bound_to 1931
  -13.5414  -24.5751  -40.4496 LP  0  0  0  0  0  0  0  0  0  0  0  0  # atno 5218 bound_to 1931
  -11.1430  -22.5445  -31.0220 LP  0  0  0  0  0  0  0  0  0  0  0  0  # atno 5224 bound_to 1070
  -12.6267  -22.6394  -30.3466 LP  0  0  0  0  0  0  0  0  0  0  0  0  # atno 5225 bound_to 1070

$$$$
IA_42|SeH_inactivess_minimized|sdf|128|dock5
  -GOLD-   4172121373D 1   1.00000     0.00000

 69 73  0  0  0  0  0  0  0  0  1 V2000
  -10.1016  -24.8267  -34.6414 C   0  0  0  0  0  0  0  0  0  0  0  0
   -9.3429  -25.9692  -34.3870 C   0  0  0  0  0  0  0  0  0  0  0  0
  -11.3703  -24.9441  -35.2091 C   0  0  0  0  0  0  0  0  0  0  0  0
   -9.8531  -27.2291  -34.7002 C   0  0  0  0  0  0  0  0  0  0  0  0
  -11.8804  -26.2039  -35.5223 C   0  0  0  0  0  0  0  0  0  0  0  0
  -11.1218  -27.3464  -35.2678 C   0  0  0  0  0  0  0  0  0  0  0  0
  -13.8566  -25.3441  -36.8404 C   0  0  0  0  0  0  0  0  0  0  0  0
  -17.6992  -24.7201  -40.4433 C   0  0  0  0  0  0  0  0  0  0  0  0
  -16.8139  -22.5973  -39.4435 C   0  0  0  0  0  0  0  0  0  0  0  0
  -18.7081  -23.8108  -38.3349 C   0  0  0  0  0  0  0  0  0  0  0  0
  -15.4316  -24.6881  -39.3733 C   0  0  0  0  0  0  0  0  0  0  0  0
  -17.3278  -25.9028  -38.2636 C   0  0  0  0  0  0  0  0  0  0  0  0
  -16.4417  -23.7768  -37.2619 C   0  0  0  0  0  0  0  0  0  0  0  0
   -4.3865  -32.7114  -34.2555 C   0  0  0  0  0  0  0  0  0  0  0  0
   -4.5480  -30.3172  -34.3135 C   0  0  0  0  0  0  0  0  0  0  0  0
   -5.7323  -32.8267  -34.9756 C   0  0  0  0  0  0  0  0  0  0  0  0
   -5.8950  -30.4183  -35.0336 C   0  0  0  0  0  0  0  0  0  0  0  0
  -16.4349  -23.8759  -40.2100 C   0  0  0  0  0  0  0  0  0  0  0  0
  -18.3388  -25.0955  -39.0959 C   0  0  0  0  0  0  0  0  0  0  0  0
  -17.4492  -22.9614  -38.0908 C   0  0  0  0  0  0  0  0  0  0  0  0
  -16.0517  -25.0695  -38.0107 C   0  0  0  0  0  0  0  0  0  0  0  0
   -8.9458  -31.0118  -34.6055 C   0  0  0  0  0  0  0  0  0  0  0  0
   -9.9089  -30.3075  -35.5597 C   0  0  0  0  0  0  0  0  0  0  0  0
   -7.8640  -31.7698  -35.3728 C   0  0  0  0  0  0  0  0  0  0  0  0
  -11.0802  -29.6808  -34.8148 C   0  0  0  0  0  0  0  0  0  0  0  0
   -3.6915  -31.4696  -34.6024 N   0  0  0  0  0  0  0  0  0  0  0  0
   -6.5822  -31.6665  -34.6783 N   0  0  0  0  0  0  0  0  0  0  0  0
  -13.1694  -26.3067  -36.0955 N   0  0  0  0  0  0  0  0  0  0  0  0
  -15.1068  -25.8352  -37.2274 N   0  0  0  0  0  0  0  0  0  0  0  0
  -13.4544  -24.2206  -37.1326 O   0  0  0  0  0  0  0  0  0  0  0  0
  -11.6017  -28.5870  -35.5662 O   0  0  0  0  0  0  0  0  0  0  0  0
   -9.7039  -23.8459  -34.3983 H   0  0  0  0  0  0  0  0  0  0  0  0
   -8.3548  -25.8779  -33.9457 H   0  0  0  0  0  0  0  0  0  0  0  0
  -11.9521  -24.0465  -35.4027 H   0  0  0  0  0  0  0  0  0  0  0  0
   -9.2565  -28.1150  -34.4999 H   0  0  0  0  0  0  0  0  0  0  0  0
  -18.4160  -24.1589  -41.0550 H   0  0  0  0  0  0  0  0  0  0  0  0
  -17.4450  -25.6285  -41.0033 H   0  0  0  0  0  0  0  0  0  0  0  0
  -15.9229  -21.9778  -39.2841 H   0  0  0  0  0  0  0  0  0  0  0  0
  -17.5158  -21.9990  -40.0377 H   0  0  0  0  0  0  0  0  0  0  0  0
  -19.4432  -23.2335  -38.9090 H   0  0  0  0  0  0  0  0  0  0  0  0
  -19.1801  -24.0651  -37.3779 H   0  0  0  0  0  0  0  0  0  0  0  0
  -15.1348  -25.5912  -39.9226 H   0  0  0  0  0  0  0  0  0  0  0  0
  -14.5137  -24.1047  -39.2224 H   0  0  0  0  0  0  0  0  0  0  0  0
  -17.7830  -26.1989  -37.3094 H   0  0  0  0  0  0  0  0  0  0  0  0
  -17.0752  -26.8352  -38.7857 H   0  0  0  0  0  0  0  0  0  0  0  0
  -15.5488  -23.1709  -37.0595 H   0  0  0  0  0  0  0  0  0  0  0  0
  -16.8765  -24.0197  -36.2832 H   0  0  0  0  0  0  0  0  0  0  0  0
   -4.5302  -32.7692  -33.1690 H   0  0  0  0  0  0  0  0  0  0  0  0
   -3.7539  -33.5595  -34.5394 H   0  0  0  0  0  0  0  0  0  0  0  0
   -4.0341  -29.4056  -34.6379 H   0  0  0  0  0  0  0  0  0  0  0  0
   -4.7029  -30.2289  -33.2306 H   0  0  0  0  0  0  0  0  0  0  0  0
   -5.5652  -32.9213  -36.0567 H   0  0  0  0  0  0  0  0  0  0  0  0
   -6.2275  -33.7450  -34.6385 H   0  0  0  0  0  0  0  0  0  0  0  0
   -6.5095  -29.5593  -34.7397 H   0  0  0  0  0  0  0  0  0  0  0  0
   -5.7380  -30.3544  -36.1186 H   0  0  0  0  0  0  0  0  0  0  0  0
  -15.9841  -23.6103  -41.1728 H   0  0  0  0  0  0  0  0  0  0  0  0
  -19.2393  -25.6954  -39.2682 H   0  0  0  0  0  0  0  0  0  0  0  0
  -17.7187  -22.0471  -37.5504 H   0  0  0  0  0  0  0  0  0  0  0  0
   -8.4810  -30.2709  -33.9428 H   0  0  0  0  0  0  0  0  0  0  0  0
   -9.5072  -31.7072  -33.9686 H   0  0  0  0  0  0  0  0  0  0  0  0
  -10.2908  -31.0154  -36.3059 H   0  0  0  0  0  0  0  0  0  0  0  0
   -9.3800  -29.5308  -36.1262 H   0  0  0  0  0  0  0  0  0  0  0  0
   -7.7575  -31.3561  -36.3814 H   0  0  0  0  0  0  0  0  0  0  0  0
   -8.1389  -32.8257  -35.4721 H   0  0  0  0  0  0  0  0  0  0  0  0
  -11.8865  -30.4075  -34.6739 H   0  0  0  0  0  0  0  0  0  0  0  0
  -10.7752  -29.3113  -33.8302 H   0  0  0  0  0  0  0  0  0  0  0  0
   -2.8303  -31.3985  -34.0616 H   0  0  0  0  0  0  0  0  0  0  0  0
  -13.6551  -27.1880  -35.9477 H   0  0  0  0  0  0  0  0  0  0  0  0
  -15.3642  -26.7749  -36.9450 H   0  0  0  0  0  0  0  0  0  0  0  0
  1  2  1  0  0  0  0
  1  3  2  0  0  0  0
  2  4  2  0  0  0  0
  3  5  1  0  0  0  0
  4  6  1  0  0  0  0
  5  6  2  0  0  0  0
  5 28  1  0  0  0  0
  6 31  1  0  0  0  0
  7 28  1  0  0  0  0
  7 29  1  0  0  0  0
  7 30  2  0  0  0  0
  8 18  1  0  0  0  0
  8 19  1  0  0  0  0
  9 18  1  0  0  0  0
  9 20  1  0  0  0  0
 10 19  1  0  0  0  0
 10 20  1  0  0  0  0
 11 18  1  0  0  0  0
 11 21  1  0  0  0  0
 12 19  1  0  0  0  0
 12 21  1  0  0  0  0
 13 20  1  0  0  0  0
 13 21  1  0  0  0  0
 14 16  1  0  0  0  0
 14 26  1  0  0  0  0
 15 17  1  0  0  0  0
 15 26  1  0  0  0  0
 16 27  1  0  0  0  0
 17 27  1  0  0  0  0
 21 29  1  0  0  0  0
 22 23  1  0  0  0  0
 22 24  1  0  0  0  0
 23 25  1  0  0  0  0
 24 27  1  0  0  0  0
 25 31  1  0  0  0  0
  1 32  1  0  0  0  0
  2 33  1  0  0  0  0
  3 34  1  0  0  0  0
  4 35  1  0  0  0  0
  8 36  1  0  0  0  0
  8 37  1  0  0  0  0
  9 38  1  0  0  0  0
  9 39  1  0  0  0  0
 10 40  1  0  0  0  0
 10 41  1  0  0  0  0
 11 42  1  0  0  0  0
 11 43  1  0  0  0  0
 12 44  1  0  0  0  0
 12 45  1  0  0  0  0
 13 46  1  0  0  0  0
 13 47  1  0  0  0  0
 14 48  1  0  0  0  0
 14 49  1  0  0  0  0
 15 50  1  0  0  0  0
 15 51  1  0  0  0  0
 16 52  1  0  0  0  0
 16 53  1  0  0  0  0
 17 54  1  0  0  0  0
 17 55  1  0  0  0  0
 18 56  1  0  0  0  0
 19 57  1  0  0  0  0
 20 58  1  0  0  0  0
 22 59  1  0  0  0  0
 22 60  1  0  0  0  0
 23 61  1  0  0  0  0
 23 62  1  0  0  0  0
 24 63  1  0  0  0  0
 24 64  1  0  0  0  0
 25 65  1  0  0  0  0
 25 66  1  0  0  0  0
 26 67  1  0  0  0  0
 28 68  1  0  0  0  0
 29 69  1  0  0  0  0
M  END
> <Name>
IA_42

> <SourceTag>
IA_42

> <Gold.Version>
5.2

> <Gold.Id.Protein>
6HGV|6HGV_protein|mol2

> <Gold.Goldscore.Fitness>
54.2590

> <Gold.Goldscore.Internal.Vdw>
-15.7223

> <Gold.Goldscore.Internal.Torsion>
-7.8831

> <Gold.Goldscore.External.Vdw>
45.1916

> <Gold.Goldscore.Internal.HBond>
0.0000

> <Gold.Goldscore.External.HBond>
0.6458

> <Gold.Goldscore.Internal.Correction>
-15.0801

> <Gold.Goldscore.Hbonds>
donor molecule, donor type, donor heavy atom, donor atom, acceptor molecule, acceptor atom, score
      P1  H  1256  3854       L1    31  0.11
      P1  H  1957  4531       L1    26  0.11
      L1  H    29    69       P1  1247  0.10

> <Gold.Goldscore.Internal.Vdw.Weighted>
-15.7223

> <Gold.Goldscore.Internal.Torsion.Weighted>
-7.8831

> <Gold.Goldscore.External.Vdw.Weighted>
62.1384

> <Gold.Goldscore.Internal.HBond.Weighted>
0.0000

> <Gold.Goldscore.External.HBond.Weighted>
0.6458

> <Gold.Goldscore.Internal.Correction.Weighted>
-15.0801

> <Gold.Protein.RotatedTorsions>
[ 3781 1176 1175 1172 ] final   58.99 input   60.00 | X-H torsion
[ 3847 1247 1246 1244 ] final   51.33 input   60.00 | X-H torsion
[ 4507 1931 1930 1928 ] final  129.07 input   60.00 | X-H torsion
[ 3677 1070 1069 1066 ] final -115.55 input   60.00 | X-H torsion
[ 3525  925  924  922 ] final  -23.65 input   59.99 | X-H torsion
[ 4531 1957 1955 1953 ] final    1.38 input   60.00 | X-H torsion

> <Gold.Protein.ActiveResidues>
 PHE267  PRO268  MET310  ASP335  TRP336  MET339  TYR343  THR360  PRO361  ILE363 
 PRO371  SER374  ILE375  ASN378  PHE381  TYR383  GLN384  PHE387  LEU408  LEU417 
 MET419  LEU428  TYR466  MET469  ASN472  ASP496  VAL498  LEU499  MET503  HIS524 
 TRP525 

> <Gold.Protein.RotatedAtoms>
   -3.7484  -29.5121  -30.1247 H   0  0  0  0  0  0  0  0  0  0  0  0  # atno 3525 bound_to 925 
  -11.5195  -23.6248  -31.4492 H   0  0  0  0  0  0  0  0  0  0  0  0  # atno 3677 bound_to 1070
  -10.6140  -37.4423  -32.7908 H   0  0  0  0  0  0  0  0  0  0  0  0  # atno 3781 bound_to 1176
  -14.9600  -28.9538  -37.2590 H   0  0  0  0  0  0  0  0  0  0  0  0  # atno 3847 bound_to 1247
  -12.4746  -23.8672  -39.4856 H   0  0  0  0  0  0  0  0  0  0  0  0  # atno 4507 bound_to 1931
   -2.8716  -32.5175  -36.6865 H   0  0  0  0  0  0  0  0  0  0  0  0  # atno 4531 bound_to 1957
  -10.2211  -36.6627  -34.1641 LP  0  0  0  0  0  0  0  0  0  0  0  0  # atno 5205 bound_to 1176
   -9.2715  -36.5241  -32.8428 LP  0  0  0  0  0  0  0  0  0  0  0  0  # atno 5206 bound_to 1176
  -16.0432  -27.7400  -37.2955 LP  0  0  0  0  0  0  0  0  0  0  0  0  # atno 5215 bound_to 1247
  -14.5628  -27.5371  -37.9541 LP  0  0  0  0  0  0  0  0  0  0  0  0  # atno 5216 bound_to 1247
  -13.1620  -25.2556  -38.9877 LP  0  0  0  0  0  0  0  0  0  0  0  0  # atno 5217 bound_to 1931
  -13.5624  -24.6163  -40.4360 LP  0  0  0  0  0  0  0  0  0  0  0  0  # atno 5218 bound_to 1931
  -11.5190  -22.2094  -30.6463 LP  0  0  0  0  0  0  0  0  0  0  0  0  # atno 5224 bound_to 1070
  -12.8187  -23.1950  -30.5686 LP  0  0  0  0  0  0  0  0  0  0  0  0  # atno 5225 bound_to 1070

$$$$
IA_118.cdx|SeH_inactivess_minimized|sdf|20|dock2
  -GOLD-   4172118563D 1   1.00000     0.00000

 24 24  0  0  0  0  0  0  0  0  1 V2000
   -9.1550  -27.0710  -34.8032 C   0  0  0  0  0  0  0  0  0  0  0  0
   -9.6092  -25.8897  -34.2170 C   0  0  0  0  0  0  0  0  0  0  0  0
   -9.7237  -27.5221  -35.9944 C   0  0  0  0  0  0  0  0  0  0  0  0
  -10.6321  -25.1594  -34.8219 C   0  0  0  0  0  0  0  0  0  0  0  0
  -10.7467  -26.7918  -36.5993 C   0  0  0  0  0  0  0  0  0  0  0  0
  -11.2009  -25.6104  -36.0130 C   0  0  0  0  0  0  0  0  0  0  0  0
  -13.3075  -25.3559  -37.3835 C   0  0  0  0  0  0  0  0  0  0  0  0
  -16.0459  -23.2109  -38.7924 C   0  0  0  0  0  0  0  0  0  0  0  0
  -15.3015  -24.4909  -38.6182 C   0  0  0  0  0  0  0  0  0  0  0  0
  -12.2240  -24.8797  -36.6180 N   0  0  0  0  0  0  0  0  0  0  0  0
  -14.1165  -24.2995  -37.8140 N   0  0  0  0  0  0  0  0  0  0  0  0
  -13.5387  -26.5320  -37.6536 O   0  0  0  0  0  0  0  0  0  0  0  0
   -8.3579  -27.6396  -34.3329 H   0  0  0  0  0  0  0  0  0  0  0  0
   -9.1661  -25.5378  -33.2901 H   0  0  0  0  0  0  0  0  0  0  0  0
   -9.3691  -28.4416  -36.4512 H   0  0  0  0  0  0  0  0  0  0  0  0
  -10.9779  -24.2401  -34.3559 H   0  0  0  0  0  0  0  0  0  0  0  0
  -11.1823  -27.1530  -37.5276 H   0  0  0  0  0  0  0  0  0  0  0  0
  -15.3873  -22.4253  -39.1784 H   0  0  0  0  0  0  0  0  0  0  0  0
  -16.8917  -23.3413  -39.4761 H   0  0  0  0  0  0  0  0  0  0  0  0
  -16.4403  -22.8764  -37.8254 H   0  0  0  0  0  0  0  0  0  0  0  0
  -14.9862  -24.8862  -39.5885 H   0  0  0  0  0  0  0  0  0  0  0  0
  -15.9258  -25.2380  -38.1193 H   0  0  0  0  0  0  0  0  0  0  0  0
  -12.1965  -23.8618  -36.4972 H   0  0  0  0  0  0  0  0  0  0  0  0
  -13.8592  -23.3539  -37.5490 H   0  0  0  0  0  0  0  0  0  0  0  0
  1  2  2  0  0  0  0
  1  3  1  0  0  0  0
  2  4  1  0  0  0  0
  3  5  2  0  0  0  0
  4  6  2  0  0  0  0
  5  6  1  0  0  0  0
  6 10  1  0  0  0  0
  7 10  1  0  0  0  0
  7 11  1  0  0  0  0
  7 12  2  0  0  0  0
  8  9  1  0  0  0  0
  9 11  1  0  0  0  0
  1 13  1  0  0  0  0
  2 14  1  0  0  0  0
  3 15  1  0  0  0  0
  4 16  1  0  0  0  0
  5 17  1  0  0  0  0
  8 18  1  0  0  0  0
  8 19  1  0  0  0  0
  8 20  1  0  0  0  0
  9 21  1  0  0  0  0
  9 22  1  0  0  0  0
 10 23  1  0  0  0  0
 11 24  1  0  0  0  0
M  END
> <Name>
IA_118.cdx

> <SourceTag>
IA_118

> <Gold.Version>
5.2

> <Gold.Id.Protein>
6HGV|6HGV_protein|mol2

> <Gold.Goldscore.Fitness>
48.3054

> <Gold.Goldscore.Internal.Vdw>
-1.2779

> <Gold.Goldscore.Internal.Torsion>
-2.4570

> <Gold.Goldscore.External.Vdw>
30.9252

> <Gold.Goldscore.Internal.HBond>
0.0000

> <Gold.Goldscore.External.HBond>
6.3462

> <Gold.Goldscore.Internal.Correction>
-3.1720

> <Gold.Goldscore.Hbonds>
donor molecule, donor type, donor heavy atom, donor atom, acceptor molecule, acceptor atom, score
      P1  H  1247  3847       L1    12  0.42
      L1  H    10    23       P1   854  0.57
      L1  H    11    24       P1   854  0.35

> <Gold.Goldscore.Internal.Vdw.Weighted>
-1.2779

> <Gold.Goldscore.Internal.Torsion.Weighted>
-2.4570

> <Gold.Goldscore.External.Vdw.Weighted>
42.5221

> <Gold.Goldscore.Internal.HBond.Weighted>
0.0000

> <Gold.Goldscore.External.HBond.Weighted>
6.3462

> <Gold.Goldscore.Internal.Correction.Weighted>
-3.1720

> <Gold.Protein.RotatedTorsions>
[ 3781 1176 1175 1172 ] final -133.15 input   60.00 | X-H torsion
[ 3847 1247 1246 1244 ] final  173.21 input   60.00 | X-H torsion
[ 4507 1931 1930 1928 ] final  165.46 input   60.00 | X-H torsion
[ 3677 1070 1069 1066 ] final -120.42 input   60.00 | X-H torsion
[ 3525  925  924  922 ] final  -11.55 input   59.99 | X-H torsion
[ 4531 1957 1955 1953 ] final  123.23 input   60.00 | X-H torsion

> <Gold.Protein.ActiveResidues>
 PHE267  PRO268  MET310  ASP335  TRP336  MET339  TYR343  THR360  PRO361  ILE363 
 PRO371  SER374  ILE375  ASN378  PHE381  TYR383  GLN384  PHE387  LEU408  LEU417 
 MET419  LEU428  TYR466  MET469  ASN472  ASP496  VAL498  LEU499  MET503  HIS524 
 TRP525 

> <Gold.Protein.RotatedAtoms>
   -3.6874  -29.5215  -30.3121 H   0  0  0  0  0  0  0  0  0  0  0  0  # atno 3525 bound_to 925 
  -11.4578  -23.5747  -31.4509 H   0  0  0  0  0  0  0  0  0  0  0  0  # atno 3677 bound_to 1070
   -9.3565  -36.3115  -33.5697 H   0  0  0  0  0  0  0  0  0  0  0  0  # atno 3781 bound_to 1176
  -14.5887  -27.5191  -37.9536 H   0  0  0  0  0  0  0  0  0  0  0  0  # atno 3847 bound_to 1247
  -12.7257  -23.7886  -40.0077 H   0  0  0  0  0  0  0  0  0  0  0  0  # atno 4507 bound_to 1931
   -2.3278  -34.0556  -36.8165 H   0  0  0  0  0  0  0  0  0  0  0  0  # atno 4531 bound_to 1957
  -10.0214  -37.1984  -32.3783 LP  0  0  0  0  0  0  0  0  0  0  0  0  # atno 5205 bound_to 1176
  -10.7376  -37.1272  -33.8441 LP  0  0  0  0  0  0  0  0  0  0  0  0  # atno 5206 bound_to 1176
  -14.9297  -28.9549  -37.2677 LP  0  0  0  0  0  0  0  0  0  0  0  0  # atno 5215 bound_to 1247
  -16.0502  -27.7671  -37.2824 LP  0  0  0  0  0  0  0  0  0  0  0  0  # atno 5216 bound_to 1247
  -12.7697  -24.8647  -38.7878 LP  0  0  0  0  0  0  0  0  0  0  0  0  # atno 5217 bound_to 1931
  -13.7018  -25.0865  -40.1102 LP  0  0  0  0  0  0  0  0  0  0  0  0  # atno 5218 bound_to 1931
  -11.5843  -22.1911  -30.6038 LP  0  0  0  0  0  0  0  0  0  0  0  0  # atno 5224 bound_to 1070
  -12.8155  -23.2638  -30.6094 LP  0  0  0  0  0  0  0  0  0  0  0  0  # atno 5225 bound_to 1070

$$$$
IA_52.cdx|SeH_inactivess_minimized|sdf|137|dock1
  -GOLD-   4172121513D 1   1.00000     0.00000

 18 18  0  0  0  0  0  0  0  0  1 V2000
   -9.1823  -26.0661  -34.3159 C   0  0  0  0  0  0  0  0  0  0  0  0
   -9.6105  -26.6904  -35.4874 C   0  0  0  0  0  0  0  0  0  0  0  0
  -10.0158  -25.1559  -33.6658 C   0  0  0  0  0  0  0  0  0  0  0  0
  -10.8723  -26.4045  -36.0090 C   0  0  0  0  0  0  0  0  0  0  0  0
  -11.2775  -24.8700  -34.1874 C   0  0  0  0  0  0  0  0  0  0  0  0
  -11.7058  -25.4943  -35.3590 C   0  0  0  0  0  0  0  0  0  0  0  0
  -13.7605  -25.9980  -36.7303 C   0  0  0  0  0  0  0  0  0  0  0  0
  -14.9620  -25.3734  -37.0368 N   0  0  0  0  0  0  0  0  0  0  0  0
  -12.9679  -25.2086  -35.8807 N   0  0  0  0  0  0  0  0  0  0  0  0
  -13.4803  -27.1071  -37.1776 O   0  0  0  0  0  0  0  0  0  0  0  0
   -8.2002  -26.2890  -33.9090 H   0  0  0  0  0  0  0  0  0  0  0  0
   -8.9622  -27.3997  -35.9933 H   0  0  0  0  0  0  0  0  0  0  0  0
   -9.6825  -24.6706  -32.7530 H   0  0  0  0  0  0  0  0  0  0  0  0
  -11.1953  -26.8973  -36.9225 H   0  0  0  0  0  0  0  0  0  0  0  0
  -11.9186  -24.1589  -33.6721 H   0  0  0  0  0  0  0  0  0  0  0  0
  -15.6226  -25.8458  -37.6448 H   0  0  0  0  0  0  0  0  0  0  0  0
  -15.1976  -24.4577  -36.6695 H   0  0  0  0  0  0  0  0  0  0  0  0
  -13.3839  -24.3089  -35.6182 H   0  0  0  0  0  0  0  0  0  0  0  0
  1  2  2  0  0  0  0
  1  3  1  0  0  0  0
  2  4  1  0  0  0  0
  3  5  2  0  0  0  0
  4  6  2  0  0  0  0
  5  6  1  0  0  0  0
  6  9  1  0  0  0  0
  7  8  1  0  0  0  0
  7  9  1  0  0  0  0
  7 10  2  0  0  0  0
  1 11  1  0  0  0  0
  2 12  1  0  0  0  0
  3 13  1  0  0  0  0
  4 14  1  0  0  0  0
  5 15  1  0  0  0  0
  8 16  1  0  0  0  0
  8 17  1  0  0  0  0
  9 18  1  0  0  0  0
M  END
> <Name>
IA_52.cdx

> <SourceTag>
IA_52

> <Gold.Version>
5.2

> <Gold.Id.Protein>
6HGV|6HGV_protein|mol2

> <Gold.Goldscore.Fitness>
38.3323

> <Gold.Goldscore.Internal.Vdw>
-1.1531

> <Gold.Goldscore.Internal.Torsion>
-1.0202

> <Gold.Goldscore.External.Vdw>
25.2141

> <Gold.Goldscore.Internal.HBond>
0.0000

> <Gold.Goldscore.External.HBond>
3.8571

> <Gold.Goldscore.Internal.Correction>
-1.9791

> <Gold.Goldscore.Hbonds>
donor molecule, donor type, donor heavy atom, donor atom, acceptor molecule, acceptor atom, score
      P1  H  1247  3847       L1    10  0.02
      L1  H     8    17       P1   853  0.01
      L1  H     9    18       P1   853  0.62

> <Gold.Goldscore.Internal.Vdw.Weighted>
-1.1531

> <Gold.Goldscore.Internal.Torsion.Weighted>
-1.0202

> <Gold.Goldscore.External.Vdw.Weighted>
34.6695

> <Gold.Goldscore.Internal.HBond.Weighted>
0.0000

> <Gold.Goldscore.External.HBond.Weighted>
3.8571

> <Gold.Goldscore.Internal.Correction.Weighted>
-1.9791

> <Gold.Protein.RotatedTorsions>
[ 3781 1176 1175 1172 ] final  158.28 input   60.00 | X-H torsion
[ 3847 1247 1246 1244 ] final  120.31 input   60.00 | X-H torsion
[ 4507 1931 1930 1928 ] final   58.34 input   60.00 | X-H torsion
[ 3677 1070 1069 1066 ] final  -64.54 input   60.00 | X-H torsion
[ 3525  925  924  922 ] final   35.77 input   59.99 | X-H torsion
[ 4531 1957 1955 1953 ] final  100.88 input   60.00 | X-H torsion

> <Gold.Protein.ActiveResidues>
 PHE267  PRO268  MET310  ASP335  TRP336  MET339  TYR343  THR360  PRO361  ILE363 
 PRO371  SER374  ILE375  ASN378  PHE381  TYR383  GLN384  PHE387  LEU408  LEU417 
 MET419  LEU428  TYR466  MET469  ASN472  ASP496  VAL498  LEU499  MET503  HIS524 
 TRP525 

> <Gold.Protein.RotatedAtoms>
   -3.1644  -29.7031  -30.8200 H   0  0  0  0  0  0  0  0  0  0  0  0  # atno 3525 bound_to 925 
  -12.2585  -23.8367  -31.2065 H   0  0  0  0  0  0  0  0  0  0  0  0  # atno 3677 bound_to 1070
   -9.4056  -36.7097  -32.5942 H   0  0  0  0  0  0  0  0  0  0  0  0  # atno 3781 bound_to 1176
  -14.3144  -28.2846  -37.7684 H   0  0  0  0  0  0  0  0  0  0  0  0  # atno 3847 bound_to 1247
  -12.6526  -24.6899  -38.8031 H   0  0  0  0  0  0  0  0  0  0  0  0  # atno 4507 bound_to 1931
   -2.6618  -33.9298  -36.7508 H   0  0  0  0  0  0  0  0  0  0  0  0  # atno 4531 bound_to 1957
  -10.7757  -37.4360  -33.0875 LP  0  0  0  0  0  0  0  0  0  0  0  0  # atno 5205 bound_to 1176
   -9.9339  -36.4886  -34.1174 LP  0  0  0  0  0  0  0  0  0  0  0  0  # atno 5206 bound_to 1176
  -15.7075  -28.7236  -37.0510 LP  0  0  0  0  0  0  0  0  0  0  0  0  # atno 5215 bound_to 1247
  -15.5487  -27.2274  -37.6856 LP  0  0  0  0  0  0  0  0  0  0  0  0  # atno 5216 bound_to 1247
  -13.6915  -25.2131  -39.9410 LP  0  0  0  0  0  0  0  0  0  0  0  0  # atno 5217 bound_to 1931
  -12.8536  -23.8303  -40.1701 LP  0  0  0  0  0  0  0  0  0  0  0  0  # atno 5218 bound_to 1931
  -11.0955  -22.7009  -31.1344 LP  0  0  0  0  0  0  0  0  0  0  0  0  # atno 5224 bound_to 1070
  -12.4979  -22.4901  -30.3249 LP  0  0  0  0  0  0  0  0  0  0  0  0  # atno 5225 bound_to 1070

$$$$
IA_7|SeH_inactivess_minimized|sdf|147|dock8
  -GOLD-   4172122 63D 1   1.00000     0.00000

 46 46  0  0  0  0  0  0  0  0  1 V2000
  -12.6655  -25.6346  -35.9738 C   0  0  0  0  0  0  0  0  0  0  0  0
  -10.0410  -29.5418  -34.8173 C   0  0  0  0  0  0  0  0  0  0  0  0
  -10.8956  -25.2716  -33.4182 C   0  0  0  0  0  0  0  0  0  0  0  0
  -14.9180  -23.7746  -37.9762 C   0  0  0  0  0  0  0  0  0  0  0  0
  -19.5093  -24.1860  -39.9681 C   0  0  0  0  0  0  0  0  0  0  0  0
  -18.1681  -24.0293  -40.6781 C   0  0  0  0  0  0  0  0  0  0  0  0
  -19.3380  -24.3009  -38.4565 C   0  0  0  0  0  0  0  0  0  0  0  0
  -17.3646  -22.8575  -40.1141 C   0  0  0  0  0  0  0  0  0  0  0  0
  -18.5365  -23.1295  -37.8889 C   0  0  0  0  0  0  0  0  0  0  0  0
  -17.1888  -22.9446  -38.5943 C   0  0  0  0  0  0  0  0  0  0  0  0
  -12.8540  -25.0166  -37.3428 C   0  0  0  0  0  0  0  0  0  0  0  0
   -9.4261  -28.3127  -35.4511 C   0  0  0  0  0  0  0  0  0  0  0  0
   -9.4807  -27.0651  -34.5605 C   0  0  0  0  0  0  0  0  0  0  0  0
  -10.8523  -26.3903  -34.4388 C   0  0  2  0  0  0  0  0  0  0  0  0
  -11.3242  -25.8546  -35.6957 N   0  0  0  0  0  0  0  0  0  0  0  0
  -16.2661  -23.9995  -38.2375 N   0  0  0  0  0  0  0  0  0  0  0  0
  -14.2620  -24.9611  -37.6583 N   0  0  0  0  0  0  0  0  0  0  0  0
  -13.5958  -25.8625  -35.2046 O   0  0  0  0  0  0  0  0  0  0  0  0
  -10.1958  -29.7194  -33.6170 O   0  0  0  0  0  0  0  0  0  0  0  0
  -11.8351  -25.0346  -32.6701 O   0  0  0  0  0  0  0  0  0  0  0  0
  -14.3741  -22.6719  -38.0195 O   0  0  0  0  0  0  0  0  0  0  0  0
  -10.3750  -30.4719  -35.7498 O   0  0  0  0  0  0  0  0  0  0  0  0
   -9.7365  -24.5626  -33.3935 O   0  0  0  0  0  0  0  0  0  0  0  0
  -20.1457  -23.3224  -40.1976 H   0  0  0  0  0  0  0  0  0  0  0  0
  -20.0269  -25.0735  -40.3492 H   0  0  0  0  0  0  0  0  0  0  0  0
  -17.5905  -24.9563  -40.5778 H   0  0  0  0  0  0  0  0  0  0  0  0
  -18.3362  -23.8757  -41.7501 H   0  0  0  0  0  0  0  0  0  0  0  0
  -20.3230  -24.3371  -37.9773 H   0  0  0  0  0  0  0  0  0  0  0  0
  -18.8342  -25.2450  -38.2160 H   0  0  0  0  0  0  0  0  0  0  0  0
  -16.3877  -22.8148  -40.6107 H   0  0  0  0  0  0  0  0  0  0  0  0
  -17.8855  -21.9229  -40.3586 H   0  0  0  0  0  0  0  0  0  0  0  0
  -19.1264  -22.2109  -38.0028 H   0  0  0  0  0  0  0  0  0  0  0  0
  -18.3880  -23.2791  -36.8126 H   0  0  0  0  0  0  0  0  0  0  0  0
  -16.7245  -22.0185  -38.2366 H   0  0  0  0  0  0  0  0  0  0  0  0
  -12.3570  -25.6147  -38.1120 H   0  0  0  0  0  0  0  0  0  0  0  0
  -12.4543  -23.9990  -37.3464 H   0  0  0  0  0  0  0  0  0  0  0  0
   -8.3755  -28.5602  -35.6441 H   0  0  0  0  0  0  0  0  0  0  0  0
   -9.9096  -28.1193  -36.4133 H   0  0  0  0  0  0  0  0  0  0  0  0
   -8.7820  -26.3286  -34.9793 H   0  0  0  0  0  0  0  0  0  0  0  0
   -9.1091  -27.3085  -33.5577 H   0  0  0  0  0  0  0  0  0  0  0  0
  -11.6008  -27.1403  -34.1566 H   0  0  0  0  0  0  0  0  0  0  0  0
  -10.6396  -25.6279  -36.4110 H   0  0  0  0  0  0  0  0  0  0  0  0
  -16.6187  -24.9488  -38.1746 H   0  0  0  0  0  0  0  0  0  0  0  0
  -14.8026  -25.8187  -37.6020 H   0  0  0  0  0  0  0  0  0  0  0  0
  -10.8233  -31.2714  -35.4003 H   0  0  0  0  0  0  0  0  0  0  0  0
   -9.6905  -23.8609  -32.7094 H   0  0  0  0  0  0  0  0  0  0  0  0
  1 11  1  0  0  0  0
  1 15  1  0  0  0  0
  1 18  2  0  0  0  0
  2 12  1  0  0  0  0
  2 19  2  0  0  0  0
  2 22  1  0  0  0  0
  3 14  1  0  0  0  0
  3 20  2  0  0  0  0
  3 23  1  0  0  0  0
  4 16  1  0  0  0  0
  4 17  1  0  0  0  0
  4 21  2  0  0  0  0
  5  6  1  0  0  0  0
  5  7  1  0  0  0  0
  6  8  1  0  0  0  0
  7  9  1  0  0  0  0
  8 10  1  0  0  0  0
  9 10  1  0  0  0  0
 10 16  1  0  0  0  0
 11 17  1  0  0  0  0
 12 13  1  0  0  0  0
 13 14  1  0  0  0  0
 14 15  1  0  0  0  0
  5 24  1  0  0  0  0
  5 25  1  0  0  0  0
  6 26  1  0  0  0  0
  6 27  1  0  0  0  0
  7 28  1  0  0  0  0
  7 29  1  0  0  0  0
  8 30  1  0  0  0  0
  8 31  1  0  0  0  0
  9 32  1  0  0  0  0
  9 33  1  0  0  0  0
 10 34  1  0  0  0  0
 11 35  1  0  0  0  0
 11 36  1  0  0  0  0
 12 37  1  0  0  0  0
 12 38  1  0  0  0  0
 13 39  1  0  0  0  0
 13 40  1  0  0  0  0
 14 41  1  0  0  0  0
 15 42  1  0  0  0  0
 16 43  1  0  0  0  0
 17 44  1  0  0  0  0
 22 45  1  0  0  0  0
 23 46  1  0  0  0  0
M  END
> <Name>
IA_7

> <SourceTag>
IA_7

> <Gold.Version>
5.2

> <Gold.Id.Protein>
6HGV|6HGV_protein|mol2

> <Gold.Goldscore.Fitness>
58.3632

> <Gold.Goldscore.Internal.Vdw>
-1.4555

> <Gold.Goldscore.Internal.Torsion>
-4.3539

> <Gold.Goldscore.External.Vdw>
41.7400

> <Gold.Goldscore.Internal.HBond>
0.0000

> <Gold.Goldscore.External.HBond>
3.4864

> <Gold.Goldscore.Internal.Correction>
-3.2937

> <Gold.Goldscore.Hbonds>
donor molecule, donor type, donor heavy atom, donor atom, acceptor molecule, acceptor atom, score
      P1  H  1256  3854       L1    22  0.22
      P1  H  1070  3677       L1    20  1.00
      L1  H    17    44       P1  1247  0.47
      L1  H    23    46       P1   850  0.05

> <Gold.Goldscore.Internal.Vdw.Weighted>
-1.4555

> <Gold.Goldscore.Internal.Torsion.Weighted>
-4.3539

> <Gold.Goldscore.External.Vdw.Weighted>
57.3925

> <Gold.Goldscore.Internal.HBond.Weighted>
0.0000

> <Gold.Goldscore.External.HBond.Weighted>
3.4864

> <Gold.Goldscore.Internal.Correction.Weighted>
-3.2937

> <Gold.Protein.RotatedTorsions>
[ 3781 1176 1175 1172 ] final  170.09 input   60.00 | X-H torsion
[ 3847 1247 1246 1244 ] final  -58.58 input   60.00 | X-H torsion
[ 4507 1931 1930 1928 ] final -134.14 input   60.00 | X-H torsion
[ 3677 1070 1069 1066 ] final  -89.20 input   60.00 | X-H torsion
[ 3525  925  924  922 ] final -124.75 input   59.99 | X-H torsion
[ 4531 1957 1955 1953 ] final  107.38 input   60.00 | X-H torsion

> <Gold.Protein.ActiveResidues>
 PHE267  PRO268  MET310  ASP335  TRP336  MET339  TYR343  THR360  PRO361  ILE363 
 PRO371  SER374  ILE375  ASN378  PHE381  TYR383  GLN384  PHE387  LEU408  LEU417 
 MET419  LEU428  TYR466  MET469  ASN472  ASP496  VAL498  LEU499  MET503  HIS524 
 TRP525 

> <Gold.Protein.RotatedAtoms>
   -2.9515  -29.9619  -29.0053 H   0  0  0  0  0  0  0  0  0  0  0  0  # atno 3525 bound_to 925 
  -11.8950  -23.8120  -31.3711 H   0  0  0  0  0  0  0  0  0  0  0  0  # atno 3677 bound_to 1070
   -9.3202  -36.6021  -32.7292 H   0  0  0  0  0  0  0  0  0  0  0  0  # atno 3781 bound_to 1176
  -16.0646  -27.8912  -37.2320 H   0  0  0  0  0  0  0  0  0  0  0  0  # atno 3847 bound_to 1247
  -13.3614  -24.2991  -40.4791 H   0  0  0  0  0  0  0  0  0  0  0  0  # atno 4507 bound_to 1931
   -2.5700  -33.9800  -36.7692 H   0  0  0  0  0  0  0  0  0  0  0  0  # atno 4531 bound_to 1957
  -10.6972  -37.4499  -32.9106 LP  0  0  0  0  0  0  0  0  0  0  0  0  # atno 5205 bound_to 1176
  -10.0984  -36.5830  -34.1582 LP  0  0  0  0  0  0  0  0  0  0  0  0  # atno 5206 bound_to 1176
  -14.6822  -27.4222  -37.9512 LP  0  0  0  0  0  0  0  0  0  0  0  0  # atno 5215 bound_to 1247
  -14.8114  -28.9251  -37.3256 LP  0  0  0  0  0  0  0  0  0  0  0  0  # atno 5216 bound_to 1247
  -12.4291  -24.0644  -39.1663 LP  0  0  0  0  0  0  0  0  0  0  0  0  # atno 5217 bound_to 1931
  -13.4022  -25.3726  -39.2568 LP  0  0  0  0  0  0  0  0  0  0  0  0  # atno 5218 bound_to 1931
  -11.2305  -22.4036  -30.8988 LP  0  0  0  0  0  0  0  0  0  0  0  0  # atno 5224 bound_to 1070
  -12.7290  -22.8123  -30.3948 LP  0  0  0  0  0  0  0  0  0  0  0  0  # atno 5225 bound_to 1070

$$$$
IA_129.cdx|SeH_inactivess_minimized|sdf|30|dock3
  -GOLD-   4172119113D 1   1.00000     0.00000

 33 33  0  0  0  0  0  0  0  0  1 V2000
   -8.6607  -30.0356  -35.7405 C   0  0  0  0  0  0  0  0  0  0  0  0
   -6.8469  -28.7794  -34.7561 C   0  0  0  0  0  0  0  0  0  0  0  0
   -7.8475  -31.1676  -35.7944 C   0  0  0  0  0  0  0  0  0  0  0  0
   -6.0337  -29.9114  -34.8099 C   0  0  0  0  0  0  0  0  0  0  0  0
   -8.1604  -28.8415  -35.2214 C   0  0  0  0  0  0  0  0  0  0  0  0
   -6.5340  -31.1055  -35.3290 C   0  0  0  0  0  0  0  0  0  0  0  0
  -13.1314  -25.9553  -35.7870 C   0  0  0  0  0  0  0  0  0  0  0  0
  -10.0170  -27.3393  -36.0418 C   0  0  0  0  0  0  0  0  0  0  0  0
  -16.5277  -24.9426  -36.6621 C   0  0  0  0  0  0  0  0  0  0  0  0
  -10.2016  -25.2790  -34.6144 C   0  0  0  0  0  0  0  0  0  0  0  0
  -11.8160  -25.6281  -36.4536 C   0  0  0  0  0  0  0  0  0  0  0  0
  -15.4632  -25.5570  -35.7783 C   0  0  0  0  0  0  0  0  0  0  0  0
   -8.9867  -27.6917  -35.1663 N   0  0  0  0  0  0  0  0  0  0  0  0
  -10.6567  -26.1214  -35.7131 N   0  0  0  0  0  0  0  0  0  0  0  0
  -13.2121  -26.7528  -34.8584 O   0  0  0  0  0  0  0  0  0  0  0  0
  -10.3449  -27.9995  -37.0301 O   0  0  0  0  0  0  0  0  0  0  0  0
  -14.1748  -25.2734  -36.3343 O   0  0  0  0  0  0  0  0  0  0  0  0
   -5.5306  -32.5025  -35.3955 Cl  0  0  0  0  0  0  0  0  0  0  0  0
   -9.6826  -30.0952  -36.1060 H   0  0  0  0  0  0  0  0  0  0  0  0
   -6.4469  -27.8540  -34.3496 H   0  0  0  0  0  0  0  0  0  0  0  0
   -8.2504  -32.0915  -36.2012 H   0  0  0  0  0  0  0  0  0  0  0  0
   -5.0121  -29.8488  -34.4439 H   0  0  0  0  0  0  0  0  0  0  0  0
  -16.5845  -25.4618  -37.6229 H   0  0  0  0  0  0  0  0  0  0  0  0
  -17.5076  -24.9903  -36.1760 H   0  0  0  0  0  0  0  0  0  0  0  0
  -16.3140  -23.8842  -36.8445 H   0  0  0  0  0  0  0  0  0  0  0  0
   -9.1453  -25.0297  -34.7446 H   0  0  0  0  0  0  0  0  0  0  0  0
  -10.3250  -25.8011  -33.6616 H   0  0  0  0  0  0  0  0  0  0  0  0
  -10.7807  -24.3523  -34.5837 H   0  0  0  0  0  0  0  0  0  0  0  0
  -11.7187  -24.5422  -36.5325 H   0  0  0  0  0  0  0  0  0  0  0  0
  -11.7922  -26.0886  -37.4445 H   0  0  0  0  0  0  0  0  0  0  0  0
  -15.5912  -26.6420  -35.7211 H   0  0  0  0  0  0  0  0  0  0  0  0
  -15.5120  -25.1366  -34.7694 H   0  0  0  0  0  0  0  0  0  0  0  0
   -8.8094  -27.0487  -34.4012 H   0  0  0  0  0  0  0  0  0  0  0  0
  1  3  1  0  0  0  0
  1  5  2  0  0  0  0
  2  4  2  0  0  0  0
  2  5  1  0  0  0  0
  3  6  2  0  0  0  0
  4  6  1  0  0  0  0
  5 13  1  0  0  0  0
  6 18  1  0  0  0  0
  7 11  1  0  0  0  0
  7 15  2  0  0  0  0
  7 17  1  0  0  0  0
  8 13  1  0  0  0  0
  8 14  1  0  0  0  0
  8 16  2  0  0  0  0
  9 12  1  0  0  0  0
 10 14  1  0  0  0  0
 11 14  1  0  0  0  0
 12 17  1  0  0  0  0
  1 19  1  0  0  0  0
  2 20  1  0  0  0  0
  3 21  1  0  0  0  0
  4 22  1  0  0  0  0
  9 23  1  0  0  0  0
  9 24  1  0  0  0  0
  9 25  1  0  0  0  0
 10 26  1  0  0  0  0
 10 27  1  0  0  0  0
 10 28  1  0  0  0  0
 11 29  1  0  0  0  0
 11 30  1  0  0  0  0
 12 31  1  0  0  0  0
 12 32  1  0  0  0  0
 13 33  1  0  0  0  0
M  END
> <Name>
IA_129.cdx

> <SourceTag>
IA_129

> <Gold.Version>
5.2

> <Gold.Id.Protein>
6HGV|6HGV_protein|mol2

> <Gold.Goldscore.Fitness>
54.8048

> <Gold.Goldscore.Internal.Vdw>
-11.3011

> <Gold.Goldscore.Internal.Torsion>
-4.2307

> <Gold.Goldscore.External.Vdw>
41.2762

> <Gold.Goldscore.Internal.HBond>
0.0000

> <Gold.Goldscore.External.HBond>
0.0000

> <Gold.Goldscore.Internal.Correction>
-13.5818

> <Gold.Goldscore.Internal.Vdw.Weighted>
-11.3011

> <Gold.Goldscore.Internal.Torsion.Weighted>
-4.2307

> <Gold.Goldscore.External.Vdw.Weighted>
56.7548

> <Gold.Goldscore.Internal.HBond.Weighted>
0.0000

> <Gold.Goldscore.External.HBond.Weighted>
0.0000

> <Gold.Goldscore.Internal.Correction.Weighted>
-13.5818

> <Gold.Protein.RotatedTorsions>
[ 3781 1176 1175 1172 ] final  176.84 input   60.00 | X-H torsion
[ 3847 1247 1246 1244 ] final  153.73 input   60.00 | X-H torsion
[ 4507 1931 1930 1928 ] final   -5.85 input   60.00 | X-H torsion
[ 3677 1070 1069 1066 ] final -113.35 input   60.00 | X-H torsion
[ 3525  925  924  922 ] final   -9.66 input   59.99 | X-H torsion
[ 4531 1957 1955 1953 ] final  -10.43 input   60.00 | X-H torsion

> <Gold.Protein.ActiveResidues>
 PHE267  PRO268  MET310  ASP335  TRP336  MET339  TYR343  THR360  PRO361  ILE363 
 PRO371  SER374  ILE375  ASN378  PHE381  TYR383  GLN384  PHE387  LEU408  LEU417 
 MET419  LEU428  TYR466  MET469  ASN472  ASP496  VAL498  LEU499  MET503  HIS524 
 TRP525 

> <Gold.Protein.RotatedAtoms>
   -3.6748  -29.5244  -30.3400 H   0  0  0  0  0  0  0  0  0  0  0  0  # atno 3525 bound_to 925 
  -11.5483  -23.6460  -31.4471 H   0  0  0  0  0  0  0  0  0  0  0  0  # atno 3677 bound_to 1070
   -9.2847  -36.5456  -32.8171 H   0  0  0  0  0  0  0  0  0  0  0  0  # atno 3781 bound_to 1176
  -14.4088  -27.7783  -37.9250 H   0  0  0  0  0  0  0  0  0  0  0  0  # atno 3847 bound_to 1247
  -13.3173  -25.3409  -39.1556 H   0  0  0  0  0  0  0  0  0  0  0  0  # atno 4507 bound_to 1931
   -2.7331  -32.3858  -36.7106 H   0  0  0  0  0  0  0  0  0  0  0  0  # atno 4531 bound_to 1957
  -10.6396  -37.4469  -32.8158 LP  0  0  0  0  0  0  0  0  0  0  0  0  # atno 5205 bound_to 1176
  -10.1917  -36.6429  -34.1647 LP  0  0  0  0  0  0  0  0  0  0  0  0  # atno 5206 bound_to 1176
  -15.2269  -28.9534  -37.1517 LP  0  0  0  0  0  0  0  0  0  0  0  0  # atno 5215 bound_to 1247
  -15.9342  -27.5076  -37.4271 LP  0  0  0  0  0  0  0  0  0  0  0  0  # atno 5216 bound_to 1247
  -13.4431  -24.4077  -40.4828 LP  0  0  0  0  0  0  0  0  0  0  0  0  # atno 5217 bound_to 1931
  -12.4326  -23.9802  -39.2733 LP  0  0  0  0  0  0  0  0  0  0  0  0  # atno 5218 bound_to 1931
  -11.4905  -22.2195  -30.6661 LP  0  0  0  0  0  0  0  0  0  0  0  0  # atno 5224 bound_to 1070
  -12.8181  -23.1635  -30.5510 LP  0  0  0  0  0  0  0  0  0  0  0  0  # atno 5225 bound_to 1070

$$$$
