A_98|SEH_inhibs_minimized|sdf|57|dock2
  -GOLD-   4182110463D 1   1.00000     0.00000

 39 39  0  0  0  0  0  0  0  0  1 V2000
  -10.7502  -27.0678  -36.7317 C   0  0  0  0  0  0  0  0  0  0  0  0
   -9.7645  -27.9001  -36.2014 C   0  0  0  0  0  0  0  0  0  0  0  0
  -11.0491  -25.8559  -36.1088 C   0  0  0  0  0  0  0  0  0  0  0  0
   -9.0775  -27.5206  -35.0482 C   0  0  0  0  0  0  0  0  0  0  0  0
  -10.3621  -25.4765  -34.9556 C   0  0  0  0  0  0  0  0  0  0  0  0
   -9.3764  -26.3088  -34.4253 C   0  0  0  0  0  0  0  0  0  0  0  0
  -13.1608  -25.3839  -37.4120 C   0  0  0  0  0  0  0  0  0  0  0  0
  -22.6696  -25.0576  -38.4008 C   0  0  0  0  0  0  0  0  0  0  0  0
  -21.3605  -25.2509  -37.6519 C   0  0  0  0  0  0  0  0  0  0  0  0
  -20.1809  -24.6575  -38.4235 C   0  0  0  0  0  0  0  0  0  0  0  0
  -18.8578  -24.9235  -37.7024 C   0  0  0  0  0  0  0  0  0  0  0  0
  -17.6399  -24.3500  -38.4326 C   0  0  0  0  0  0  0  0  0  0  0  0
  -16.3398  -24.4650  -37.6325 C   0  0  0  0  0  0  0  0  0  0  0  0
  -15.1200  -24.3196  -38.5424 C   0  0  0  0  0  0  0  0  0  0  0  0
  -12.0497  -25.0147  -36.6487 N   0  0  0  0  0  0  0  0  0  0  0  0
  -13.8998  -24.2535  -37.7467 N   0  0  0  0  0  0  0  0  0  0  0  0
  -13.4689  -26.5232  -37.7536 O   0  0  0  0  0  0  0  0  0  0  0  0
   -8.1323  -28.3207  -34.5378 F   0  0  0  0  0  0  0  0  0  0  0  0
  -10.6416  -24.3144  -34.3482 F   0  0  0  0  0  0  0  0  0  0  0  0
   -8.7176  -25.9448  -33.3175 F   0  0  0  0  0  0  0  0  0  0  0  0
  -11.2795  -27.3743  -37.6304 H   0  0  0  0  0  0  0  0  0  0  0  0
   -9.5322  -28.8443  -36.6852 H   0  0  0  0  0  0  0  0  0  0  0  0
  -23.5081  -25.4850  -37.8415 H   0  0  0  0  0  0  0  0  0  0  0  0
  -22.8734  -23.9949  -38.5673 H   0  0  0  0  0  0  0  0  0  0  0  0
  -22.6247  -25.5519  -39.3763 H   0  0  0  0  0  0  0  0  0  0  0  0
  -21.4377  -24.7772  -36.6663 H   0  0  0  0  0  0  0  0  0  0  0  0
  -21.1958  -26.3219  -37.4858 H   0  0  0  0  0  0  0  0  0  0  0  0
  -20.3254  -23.5768  -38.5406 H   0  0  0  0  0  0  0  0  0  0  0  0
  -20.1558  -25.0934  -39.4284 H   0  0  0  0  0  0  0  0  0  0  0  0
  -18.8986  -24.4737  -36.7026 H   0  0  0  0  0  0  0  0  0  0  0  0
  -18.7249  -26.0025  -37.5573 H   0  0  0  0  0  0  0  0  0  0  0  0
  -17.5237  -24.8492  -39.4022 H   0  0  0  0  0  0  0  0  0  0  0  0
  -17.8368  -23.2915  -38.6444 H   0  0  0  0  0  0  0  0  0  0  0  0
  -16.3189  -23.6903  -36.8559 H   0  0  0  0  0  0  0  0  0  0  0  0
  -16.2978  -25.4357  -37.1248 H   0  0  0  0  0  0  0  0  0  0  0  0
  -15.0553  -25.1739  -39.2247 H   0  0  0  0  0  0  0  0  0  0  0  0
  -15.2059  -23.4122  -39.1503 H   0  0  0  0  0  0  0  0  0  0  0  0
  -11.9439  -24.0220  -36.4547 H   0  0  0  0  0  0  0  0  0  0  0  0
  -13.5787  -23.3524  -37.4261 H   0  0  0  0  0  0  0  0  0  0  0  0
  1  2  1  0  0  0  0
  1  3  2  0  0  0  0
  2  4  2  0  0  0  0
  3  5  1  0  0  0  0
  3 15  1  0  0  0  0
  4  6  1  0  0  0  0
  4 18  1  0  0  0  0
  5  6  2  0  0  0  0
  5 19  1  0  0  0  0
  6 20  1  0  0  0  0
  7 15  1  0  0  0  0
  7 16  1  0  0  0  0
  7 17  2  0  0  0  0
  8  9  1  0  0  0  0
  9 10  1  0  0  0  0
 10 11  1  0  0  0  0
 11 12  1  0  0  0  0
 12 13  1  0  0  0  0
 13 14  1  0  0  0  0
 14 16  1  0  0  0  0
  1 21  1  0  0  0  0
  2 22  1  0  0  0  0
  8 23  1  0  0  0  0
  8 24  1  0  0  0  0
  8 25  1  0  0  0  0
  9 26  1  0  0  0  0
  9 27  1  0  0  0  0
 10 28  1  0  0  0  0
 10 29  1  0  0  0  0
 11 30  1  0  0  0  0
 11 31  1  0  0  0  0
 12 32  1  0  0  0  0
 12 33  1  0  0  0  0
 13 34  1  0  0  0  0
 13 35  1  0  0  0  0
 14 36  1  0  0  0  0
 14 37  1  0  0  0  0
 15 38  1  0  0  0  0
 16 39  1  0  0  0  0
M  END
> <Name>
A_98

> <SourceTag>
A_98

> <Gold.Version>
5.2

> <Gold.Id.Protein>
6HGV|6HGV_protein|mol2

> <Gold.Goldscore.Fitness>
59.2443

> <Gold.Goldscore.Internal.Vdw>
-2.8834

> <Gold.Goldscore.Internal.Torsion>
-2.8940

> <Gold.Goldscore.External.Vdw>
38.6658

> <Gold.Goldscore.Internal.HBond>
0.0000

> <Gold.Goldscore.External.HBond>
6.9660

> <Gold.Goldscore.Internal.Correction>
-4.8902

> <Gold.Goldscore.Hbonds>
donor molecule, donor type, donor heavy atom, donor atom, acceptor molecule, acceptor atom, score
      P1  H  1247  3847       L1    17  0.31
      L1  H    15    38       P1   854  0.29
      L1  H    16    39       P1   854  0.77

> <Gold.Goldscore.Internal.Vdw.Weighted>
-2.8834

> <Gold.Goldscore.Internal.Torsion.Weighted>
-2.8940

> <Gold.Goldscore.External.Vdw.Weighted>
53.1655

> <Gold.Goldscore.Internal.HBond.Weighted>
0.0000

> <Gold.Goldscore.External.HBond.Weighted>
6.9660

> <Gold.Goldscore.Internal.Correction.Weighted>
-4.8902

> <Gold.Protein.RotatedTorsions>
[ 3781 1176 1175 1172 ] final    1.21 input   60.00 | X-H torsion
[ 3847 1247 1246 1244 ] final  159.06 input   60.00 | X-H torsion
[ 4507 1931 1930 1928 ] final  155.11 input   60.00 | X-H torsion
[ 3677 1070 1069 1066 ] final -175.42 input   60.00 | X-H torsion
[ 3525  925  924  922 ] final  -46.68 input   59.99 | X-H torsion
[ 4531 1957 1955 1953 ] final -162.14 input   60.00 | X-H torsion

> <Gold.Protein.ActiveResidues>
 PHE267  PRO268  MET310  ASP335  TRP336  MET339  TYR343  THR360  PRO361  ILE363 
 PRO371  SER374  ILE375  ASN378  PHE381  TYR383  GLN384  PHE387  LEU408  LEU417 
 MET419  LEU428  TYR466  MET469  ASN472  ASP496  VAL498  LEU499  MET503  HIS524 
 TRP525 

> <Gold.Protein.RotatedAtoms>
   -3.7609  -29.5407  -29.7521 H   0  0  0  0  0  0  0  0  0  0  0  0  # atno 3525 bound_to 925 
  -11.0898  -22.8308  -31.2082 H   0  0  0  0  0  0  0  0  0  0  0  0  # atno 3677 bound_to 1070
  -10.8047  -37.2465  -33.6532 H   0  0  0  0  0  0  0  0  0  0  0  0  # atno 3781 bound_to 1176
  -14.4499  -27.7025  -37.9379 H   0  0  0  0  0  0  0  0  0  0  0  0  # atno 3847 bound_to 1247
  -12.6352  -23.7786  -39.8655 H   0  0  0  0  0  0  0  0  0  0  0  0  # atno 4507 bound_to 1931
   -1.3432  -33.5193  -36.9944 H   0  0  0  0  0  0  0  0  0  0  0  0  # atno 4531 bound_to 1957
   -9.4769  -36.3133  -33.7715 LP  0  0  0  0  0  0  0  0  0  0  0  0  # atno 5205 bound_to 1176
   -9.8236  -37.0707  -32.3669 LP  0  0  0  0  0  0  0  0  0  0  0  0  # atno 5206 bound_to 1176
  -15.1445  -28.9640  -37.1800 LP  0  0  0  0  0  0  0  0  0  0  0  0  # atno 5215 bound_to 1247
  -15.9753  -27.5733  -37.3859 LP  0  0  0  0  0  0  0  0  0  0  0  0  # atno 5216 bound_to 1247
  -12.8758  -24.9953  -38.8121 LP  0  0  0  0  0  0  0  0  0  0  0  0  # atno 5217 bound_to 1931
  -13.6868  -24.9659  -40.2291 LP  0  0  0  0  0  0  0  0  0  0  0  0  # atno 5218 bound_to 1931
  -12.3843  -22.3923  -30.3250 LP  0  0  0  0  0  0  0  0  0  0  0  0  # atno 5224 bound_to 1070
  -12.3860  -23.8117  -31.1325 LP  0  0  0  0  0  0  0  0  0  0  0  0  # atno 5225 bound_to 1070

$$$$
A_62|SEH_inhibs_minimized|sdf|42|dock5
  -GOLD-   4182110203D 1   1.00000     0.00000

 59 63  0  0  0  0  0  0  0  0  1 V2000
  -21.3004  -24.5372  -36.2767 C   0  0  0  0  0  0  0  0  0  0  0  0
  -21.0134  -23.9318  -37.5001 C   0  0  0  0  0  0  0  0  0  0  0  0
  -20.2675  -25.0557  -35.4957 C   0  0  0  0  0  0  0  0  0  0  0  0
   -6.0897  -29.2149  -34.2356 C   0  0  0  0  0  0  0  0  0  0  0  0
   -6.8657  -31.2885  -35.2025 C   0  0  0  0  0  0  0  0  0  0  0  0
  -19.6933  -23.8447  -37.9423 C   0  0  0  0  0  0  0  0  0  0  0  0
  -18.9476  -24.9686  -35.9380 C   0  0  0  0  0  0  0  0  0  0  0  0
   -4.8742  -29.8193  -33.9146 C   0  0  0  0  0  0  0  0  0  0  0  0
   -5.6503  -31.8930  -34.8817 C   0  0  0  0  0  0  0  0  0  0  0  0
   -7.0854  -29.9494  -34.8797 C   0  0  0  0  0  0  0  0  0  0  0  0
  -18.6604  -24.3631  -37.1612 C   0  0  0  0  0  0  0  0  0  0  0  0
   -4.6546  -31.1584  -34.2377 C   0  0  0  0  0  0  0  0  0  0  0  0
   -8.3351  -29.3277  -35.2101 C   0  0  0  0  0  0  0  0  0  0  0  0
   -9.7957  -27.8733  -35.3892 C   0  0  0  0  0  0  0  0  0  0  0  0
  -14.6045  -25.2827  -36.0193 C   0  0  0  0  0  0  0  0  0  0  0  0
  -11.8294  -26.7531  -34.3696 C   0  0  0  0  0  0  0  0  0  0  0  0
  -11.2428  -26.3410  -36.8014 C   0  0  0  0  0  0  0  0  0  0  0  0
  -16.8389  -24.8337  -38.9844 C   0  0  0  0  0  0  0  0  0  0  0  0
  -12.7310  -25.5193  -34.4165 C   0  0  0  0  0  0  0  0  0  0  0  0
  -12.1522  -25.1129  -36.7719 C   0  0  0  0  0  0  0  0  0  0  0  0
  -17.2306  -24.2687  -37.6406 C   0  0  2  0  0  0  0  0  0  0  0  0
  -10.6847  -26.6441  -35.3963 C   0  0  0  0  0  0  0  0  0  0  0  0
  -16.3772  -25.5179  -37.7318 C   0  0  2  0  0  0  0  0  0  0  0  0
   -3.5488  -33.0912  -32.5679 C   0  0  0  0  0  0  0  0  0  0  0  0
   -8.5765  -28.0135  -34.9333 N   0  0  0  0  0  0  0  0  0  0  0  0
   -9.3326  -29.9888  -35.8049 N   0  0  0  0  0  0  0  0  0  0  0  0
  -13.2211  -25.2959  -35.7794 N   0  0  0  0  0  0  0  0  0  0  0  0
  -14.9943  -25.4981  -37.3360 N   0  0  0  0  0  0  0  0  0  0  0  0
  -15.4363  -25.0974  -35.1243 O   0  0  0  0  0  0  0  0  0  0  0  0
   -2.6656  -32.6758  -34.9859 O   0  0  0  0  0  0  0  0  0  0  0  0
   -2.2714  -30.9030  -33.2405 O   0  0  0  0  0  0  0  0  0  0  0  0
  -10.3220  -29.0050  -35.9264 O   0  0  0  0  0  0  0  0  0  0  0  0
   -3.1332  -31.9148  -33.8353 S   0  0  0  0  0  0  0  0  0  0  0  0
  -22.3280  -24.6048  -35.9323 H   0  0  0  0  0  0  0  0  0  0  0  0
  -21.8177  -23.5287  -38.1084 H   0  0  0  0  0  0  0  0  0  0  0  0
  -20.4907  -25.5265  -34.5429 H   0  0  0  0  0  0  0  0  0  0  0  0
   -6.2453  -28.1701  -33.9769 H   0  0  0  0  0  0  0  0  0  0  0  0
   -7.6317  -31.8745  -35.7049 H   0  0  0  0  0  0  0  0  0  0  0  0
  -19.4802  -23.3713  -38.8971 H   0  0  0  0  0  0  0  0  0  0  0  0
  -18.1498  -25.3754  -35.3219 H   0  0  0  0  0  0  0  0  0  0  0  0
   -4.1054  -29.2380  -33.4127 H   0  0  0  0  0  0  0  0  0  0  0  0
   -5.4896  -32.9368  -35.1369 H   0  0  0  0  0  0  0  0  0  0  0  0
  -11.4222  -26.8738  -33.3582 H   0  0  0  0  0  0  0  0  0  0  0  0
  -12.4318  -27.6478  -34.5781 H   0  0  0  0  0  0  0  0  0  0  0  0
  -11.8108  -27.2043  -37.1733 H   0  0  0  0  0  0  0  0  0  0  0  0
  -10.4197  -26.1734  -37.5069 H   0  0  0  0  0  0  0  0  0  0  0  0
  -17.5926  -25.3342  -39.5813 H   0  0  0  0  0  0  0  0  0  0  0  0
  -16.1123  -24.2802  -39.5680 H   0  0  0  0  0  0  0  0  0  0  0  0
  -13.5607  -25.6455  -33.7144 H   0  0  0  0  0  0  0  0  0  0  0  0
  -12.1765  -24.6242  -34.1110 H   0  0  0  0  0  0  0  0  0  0  0  0
  -11.5795  -24.2277  -36.4685 H   0  0  0  0  0  0  0  0  0  0  0  0
  -12.5296  -24.9074  -37.7728 H   0  0  0  0  0  0  0  0  0  0  0  0
  -16.7183  -23.3511  -37.3473 H   0  0  0  0  0  0  0  0  0  0  0  0
  -10.0376  -25.7868  -35.0948 H   0  0  0  0  0  0  0  0  0  0  0  0
  -16.8566  -26.4664  -37.5011 H   0  0  0  0  0  0  0  0  0  0  0  0
   -3.9965  -32.5523  -31.7314 H   0  0  0  0  0  0  0  0  0  0  0  0
   -4.2574  -33.8092  -32.9834 H   0  0  0  0  0  0  0  0  0  0  0  0
   -2.6340  -33.5951  -32.2525 H   0  0  0  0  0  0  0  0  0  0  0  0
  -14.2901  -25.6462  -38.0434 H   0  0  0  0  0  0  0  0  0  0  0  0
  1  2  2  0  0  0  0
  1  3  1  0  0  0  0
  2  6  1  0  0  0  0
  3  7  2  0  0  0  0
  4  8  1  0  0  0  0
  4 10  2  0  0  0  0
  5  9  2  0  0  0  0
  5 10  1  0  0  0  0
  6 11  2  0  0  0  0
  7 11  1  0  0  0  0
  8 12  2  0  0  0  0
  9 12  1  0  0  0  0
 10 13  1  0  0  0  0
 11 21  1  0  0  0  0
 12 33  1  0  0  0  0
 13 25  1  0  0  0  0
 13 26  2  0  0  0  0
 14 22  1  0  0  0  0
 14 25  2  0  0  0  0
 14 32  1  0  0  0  0
 15 27  1  0  0  0  0
 15 28  1  0  0  0  0
 15 29  2  0  0  0  0
 16 19  1  0  0  0  0
 16 22  1  0  0  0  0
 17 20  1  0  0  0  0
 17 22  1  0  0  0  0
 18 21  1  0  0  0  0
 18 23  1  0  0  0  0
 19 27  1  0  0  0  0
 20 27  1  0  0  0  0
 21 23  1  0  0  0  0
 23 28  1  0  0  0  0
 24 33  1  0  0  0  0
 26 32  1  0  0  0  0
 30 33  2  0  0  0  0
 31 33  2  0  0  0  0
  1 34  1  0  0  0  0
  2 35  1  0  0  0  0
  3 36  1  0  0  0  0
  4 37  1  0  0  0  0
  5 38  1  0  0  0  0
  6 39  1  0  0  0  0
  7 40  1  0  0  0  0
  8 41  1  0  0  0  0
  9 42  1  0  0  0  0
 16 43  1  0  0  0  0
 16 44  1  0  0  0  0
 17 45  1  0  0  0  0
 17 46  1  0  0  0  0
 18 47  1  0  0  0  0
 18 48  1  0  0  0  0
 19 49  1  0  0  0  0
 19 50  1  0  0  0  0
 20 51  1  0  0  0  0
 20 52  1  0  0  0  0
 21 53  1  0  0  0  0
 22 54  1  0  0  0  0
 23 55  1  0  0  0  0
 24 56  1  0  0  0  0
 24 57  1  0  0  0  0
 24 58  1  0  0  0  0
 28 59  1  0  0  0  0
M  END
> <Name>
A_62

> <SourceTag>
A_62

> <Gold.Version>
5.2

> <Gold.Id.Protein>
6HGV|6HGV_protein|mol2

> <Gold.Goldscore.Fitness>
83.2305

> <Gold.Goldscore.Internal.Vdw>
-2.7120

> <Gold.Goldscore.Internal.Torsion>
-7.4412

> <Gold.Goldscore.External.Vdw>
58.9425

> <Gold.Goldscore.Internal.HBond>
0.0000

> <Gold.Goldscore.External.HBond>
2.2204

> <Gold.Goldscore.Internal.Correction>
-10.1174

> <Gold.Goldscore.Hbonds>
donor molecule, donor type, donor heavy atom, donor atom, acceptor molecule, acceptor atom, score
      P1  H  1256  3854       L1    32  0.20
      P1  H   925  3525       L1    31  0.73
      L1  H    28    59       P1  1931  0.19

> <Gold.Goldscore.Internal.Vdw.Weighted>
-2.7120

> <Gold.Goldscore.Internal.Torsion.Weighted>
-7.4412

> <Gold.Goldscore.External.Vdw.Weighted>
81.0460

> <Gold.Goldscore.Internal.HBond.Weighted>
0.0000

> <Gold.Goldscore.External.HBond.Weighted>
2.2204

> <Gold.Goldscore.Internal.Correction.Weighted>
-10.1174

> <Gold.Protein.RotatedTorsions>
[ 3781 1176 1175 1172 ] final   -2.45 input   60.00 | X-H torsion
[ 3847 1247 1246 1244 ] final  114.52 input   60.00 | X-H torsion
[ 4507 1931 1930 1928 ] final  168.58 input   60.00 | X-H torsion
[ 3677 1070 1069 1066 ] final  -70.81 input   60.00 | X-H torsion
[ 3525  925  924  922 ] final   70.69 input   59.99 | X-H torsion
[ 4531 1957 1955 1953 ] final -176.39 input   60.00 | X-H torsion

> <Gold.Protein.ActiveResidues>
 PHE267  PRO268  MET310  ASP335  TRP336  MET339  TYR343  THR360  PRO361  ILE363 
 PRO371  SER374  ILE375  ASN378  PHE381  TYR383  GLN384  PHE387  LEU408  LEU417 
 MET419  LEU428  TYR466  MET469  ASN472  ASP496  VAL498  LEU499  MET503  HIS524 
 TRP525 

> <Gold.Protein.RotatedAtoms>
   -2.6489  -29.9263  -30.8355 H   0  0  0  0  0  0  0  0  0  0  0  0  # atno 3525 bound_to 925 
  -12.1689  -23.8450  -31.2553 H   0  0  0  0  0  0  0  0  0  0  0  0  # atno 3677 bound_to 1070
  -10.7905  -37.2180  -33.7039 H   0  0  0  0  0  0  0  0  0  0  0  0  # atno 3781 bound_to 1176
  -14.3281  -28.3702  -37.7303 H   0  0  0  0  0  0  0  0  0  0  0  0  # atno 3847 bound_to 1247
  -12.7552  -23.7966  -40.0483 H   0  0  0  0  0  0  0  0  0  0  0  0  # atno 4507 bound_to 1931
   -1.4635  -33.7172  -36.9750 H   0  0  0  0  0  0  0  0  0  0  0  0  # atno 4531 bound_to 1957
   -9.4416  -36.3079  -33.7229 LP  0  0  0  0  0  0  0  0  0  0  0  0  # atno 5205 bound_to 1176
   -9.8733  -37.1047  -32.3645 LP  0  0  0  0  0  0  0  0  0  0  0  0  # atno 5206 bound_to 1176
  -15.7771  -28.6587  -37.0484 LP  0  0  0  0  0  0  0  0  0  0  0  0  # atno 5215 bound_to 1247
  -15.4653  -27.2062  -37.7265 LP  0  0  0  0  0  0  0  0  0  0  0  0  # atno 5216 bound_to 1247
  -12.7395  -24.8233  -38.7859 LP  0  0  0  0  0  0  0  0  0  0  0  0  # atno 5217 bound_to 1931
  -13.7023  -25.1198  -40.0711 LP  0  0  0  0  0  0  0  0  0  0  0  0  # atno 5218 bound_to 1931
  -11.1155  -22.6175  -31.0771 LP  0  0  0  0  0  0  0  0  0  0  0  0  # atno 5224 bound_to 1070
  -12.5681  -22.5651  -30.3330 LP  0  0  0  0  0  0  0  0  0  0  0  0  # atno 5225 bound_to 1070

$$$$
A_91|SEH_inhibs_minimized|sdf|54|dock2
  -GOLD-   4182110433D 1   1.00000     0.00000

 43 44  0  0  0  0  0  0  0  0  1 V2000
  -18.0726  -24.9271  -37.8982 C   0  0  0  0  0  0  0  0  0  0  0  0
  -18.7549  -24.9454  -35.5804 C   0  0  0  0  0  0  0  0  0  0  0  0
  -16.7837  -25.3049  -37.5218 C   0  0  0  0  0  0  0  0  0  0  0  0
  -17.4660  -25.3233  -35.2041 C   0  0  0  0  0  0  0  0  0  0  0  0
  -19.0582  -24.7473  -36.9275 C   0  0  0  0  0  0  0  0  0  0  0  0
  -16.4804  -25.5030  -36.1748 C   0  0  0  0  0  0  0  0  0  0  0  0
  -13.9625  -25.5045  -36.3765 C   0  0  0  0  0  0  0  0  0  0  0  0
   -9.8710  -27.2591  -33.9957 C   0  0  0  0  0  0  0  0  0  0  0  0
  -10.5559  -25.9252  -33.7102 C   0  0  0  0  0  0  0  0  0  0  0  0
  -10.6053  -28.0582  -35.0690 C   0  0  0  0  0  0  0  0  0  0  0  0
  -10.7546  -25.1097  -34.9886 C   0  0  0  0  0  0  0  0  0  0  0  0
  -10.8035  -27.2378  -36.3443 C   0  0  0  0  0  0  0  0  0  0  0  0
  -11.4914  -25.8909  -36.0848 C   0  0  0  0  0  0  0  0  0  0  0  0
  -21.1127  -25.3847  -38.2414 C   0  0  0  0  0  0  0  0  0  0  0  0
  -20.4708  -22.9585  -38.0041 C   0  0  0  0  0  0  0  0  0  0  0  0
  -20.4362  -24.3433  -37.3300 C   0  0  0  0  0  0  0  0  0  0  0  0
  -15.1737  -25.8864  -35.7928 N   0  0  0  0  0  0  0  0  0  0  0  0
  -12.8901  -26.1010  -35.7045 N   0  0  0  0  0  0  0  0  0  0  0  0
  -13.8177  -24.7559  -37.3400 O   0  0  0  0  0  0  0  0  0  0  0  0
  -18.2996  -24.7726  -38.9498 H   0  0  0  0  0  0  0  0  0  0  0  0
  -19.5164  -24.8069  -34.8176 H   0  0  0  0  0  0  0  0  0  0  0  0
  -16.0236  -25.4424  -38.2867 H   0  0  0  0  0  0  0  0  0  0  0  0
  -17.2401  -25.4740  -34.1514 H   0  0  0  0  0  0  0  0  0  0  0  0
   -8.8358  -27.0817  -34.3119 H   0  0  0  0  0  0  0  0  0  0  0  0
   -9.8237  -27.8493  -33.0709 H   0  0  0  0  0  0  0  0  0  0  0  0
  -11.5258  -26.1031  -33.2333 H   0  0  0  0  0  0  0  0  0  0  0  0
   -9.9506  -25.3479  -33.0011 H   0  0  0  0  0  0  0  0  0  0  0  0
  -10.0348  -28.9646  -35.3045 H   0  0  0  0  0  0  0  0  0  0  0  0
  -11.5787  -28.3828  -34.6858 H   0  0  0  0  0  0  0  0  0  0  0  0
  -11.3119  -24.1871  -34.7495 H   0  0  0  0  0  0  0  0  0  0  0  0
   -9.7727  -24.7742  -35.3629 H   0  0  0  0  0  0  0  0  0  0  0  0
   -9.8254  -27.0722  -36.8267 H   0  0  0  0  0  0  0  0  0  0  0  0
  -11.3953  -27.8255  -37.0678 H   0  0  0  0  0  0  0  0  0  0  0  0
  -11.5131  -25.3066  -37.0012 H   0  0  0  0  0  0  0  0  0  0  0  0
  -20.6368  -25.4277  -39.2271 H   0  0  0  0  0  0  0  0  0  0  0  0
  -22.1729  -25.1553  -38.3940 H   0  0  0  0  0  0  0  0  0  0  0  0
  -21.0467  -26.3834  -37.7953 H   0  0  0  0  0  0  0  0  0  0  0  0
  -20.1377  -22.1841  -37.3043 H   0  0  0  0  0  0  0  0  0  0  0  0
  -21.4825  -22.6991  -38.3346 H   0  0  0  0  0  0  0  0  0  0  0  0
  -19.8152  -22.9206  -38.8810 H   0  0  0  0  0  0  0  0  0  0  0  0
  -21.0799  -24.2605  -36.4336 H   0  0  0  0  0  0  0  0  0  0  0  0
  -15.1132  -26.5156  -34.9962 H   0  0  0  0  0  0  0  0  0  0  0  0
  -13.0910  -26.7083  -34.9158 H   0  0  0  0  0  0  0  0  0  0  0  0
  1  3  1  0  0  0  0
  1  5  2  0  0  0  0
  2  4  2  0  0  0  0
  2  5  1  0  0  0  0
  3  6  2  0  0  0  0
  4  6  1  0  0  0  0
  5 16  1  0  0  0  0
  6 17  1  0  0  0  0
  7 17  1  0  0  0  0
  7 18  1  0  0  0  0
  7 19  2  0  0  0  0
  8  9  1  0  0  0  0
  8 10  1  0  0  0  0
  9 11  1  0  0  0  0
 10 12  1  0  0  0  0
 11 13  1  0  0  0  0
 12 13  1  0  0  0  0
 13 18  1  0  0  0  0
 14 16  1  0  0  0  0
 15 16  1  0  0  0  0
  1 20  1  0  0  0  0
  2 21  1  0  0  0  0
  3 22  1  0  0  0  0
  4 23  1  0  0  0  0
  8 24  1  0  0  0  0
  8 25  1  0  0  0  0
  9 26  1  0  0  0  0
  9 27  1  0  0  0  0
 10 28  1  0  0  0  0
 10 29  1  0  0  0  0
 11 30  1  0  0  0  0
 11 31  1  0  0  0  0
 12 32  1  0  0  0  0
 12 33  1  0  0  0  0
 13 34  1  0  0  0  0
 14 35  1  0  0  0  0
 14 36  1  0  0  0  0
 14 37  1  0  0  0  0
 15 38  1  0  0  0  0
 15 39  1  0  0  0  0
 15 40  1  0  0  0  0
 16 41  1  0  0  0  0
 17 42  1  0  0  0  0
 18 43  1  0  0  0  0
M  END
> <Name>
A_91

> <SourceTag>
A_91

> <Gold.Version>
5.2

> <Gold.Id.Protein>
6HGV|6HGV_protein|mol2

> <Gold.Goldscore.Fitness>
64.1314

> <Gold.Goldscore.Internal.Vdw>
-1.8616

> <Gold.Goldscore.Internal.Torsion>
-3.2258

> <Gold.Goldscore.External.Vdw>
46.6631

> <Gold.Goldscore.Internal.HBond>
0.0000

> <Gold.Goldscore.External.HBond>
0.6385

> <Gold.Goldscore.Internal.Correction>
-4.4185

> <Gold.Goldscore.Hbonds>
donor molecule, donor type, donor heavy atom, donor atom, acceptor molecule, acceptor atom, score
      P1  H  1931  4507       L1    19  0.32

> <Gold.Goldscore.Internal.Vdw.Weighted>
-1.8616

> <Gold.Goldscore.Internal.Torsion.Weighted>
-3.2258

> <Gold.Goldscore.External.Vdw.Weighted>
64.1618

> <Gold.Goldscore.Internal.HBond.Weighted>
0.0000

> <Gold.Goldscore.External.HBond.Weighted>
0.6385

> <Gold.Goldscore.Internal.Correction.Weighted>
-4.4185

> <Gold.Protein.RotatedTorsions>
[ 3781 1176 1175 1172 ] final  -47.43 input   60.00 | X-H torsion
[ 3847 1247 1246 1244 ] final  152.43 input   60.00 | X-H torsion
[ 4507 1931 1930 1928 ] final   28.97 input   60.00 | X-H torsion
[ 3677 1070 1069 1066 ] final -110.35 input   60.00 | X-H torsion
[ 3525  925  924  922 ] final  -91.43 input   59.99 | X-H torsion
[ 4531 1957 1955 1953 ] final  -91.76 input   60.00 | X-H torsion

> <Gold.Protein.ActiveResidues>
 PHE267  PRO268  MET310  ASP335  TRP336  MET339  TYR343  THR360  PRO361  ILE363 
 PRO371  SER374  ILE375  ASN378  PHE381  TYR383  GLN384  PHE387  LEU408  LEU417 
 MET419  LEU428  TYR466  MET469  ASN472  ASP496  VAL498  LEU499  MET503  HIS524 
 TRP525 

> <Gold.Protein.RotatedAtoms>
   -3.4165  -29.7448  -29.1624 H   0  0  0  0  0  0  0  0  0  0  0  0  # atno 3525 bound_to 925 
  -11.5887  -23.6735  -31.4428 H   0  0  0  0  0  0  0  0  0  0  0  0  # atno 3677 bound_to 1070
  -10.3947  -36.7959  -34.1260 H   0  0  0  0  0  0  0  0  0  0  0  0  # atno 3781 bound_to 1176
  -14.3998  -27.7972  -37.9213 H   0  0  0  0  0  0  0  0  0  0  0  0  # atno 3847 bound_to 1247
  -12.9411  -25.0645  -38.8458 H   0  0  0  0  0  0  0  0  0  0  0  0  # atno 4507 bound_to 1931
   -1.5367  -32.4592  -36.9393 H   0  0  0  0  0  0  0  0  0  0  0  0  # atno 4531 bound_to 1957
   -9.2390  -36.4281  -33.0412 LP  0  0  0  0  0  0  0  0  0  0  0  0  # atno 5205 bound_to 1176
  -10.4745  -37.4097  -32.6211 LP  0  0  0  0  0  0  0  0  0  0  0  0  # atno 5206 bound_to 1176
  -15.2469  -28.9496  -37.1453 LP  0  0  0  0  0  0  0  0  0  0  0  0  # atno 5215 bound_to 1247
  -15.9232  -27.4923  -37.4373 LP  0  0  0  0  0  0  0  0  0  0  0  0  # atno 5216 bound_to 1247
  -13.6683  -24.8881  -40.2909 LP  0  0  0  0  0  0  0  0  0  0  0  0  # atno 5217 bound_to 1931
  -12.5862  -23.7781  -39.7771 LP  0  0  0  0  0  0  0  0  0  0  0  0  # atno 5218 bound_to 1931
  -11.4527  -22.2353  -30.6937 LP  0  0  0  0  0  0  0  0  0  0  0  0  # atno 5224 bound_to 1070
  -12.8152  -23.1200  -30.5276 LP  0  0  0  0  0  0  0  0  0  0  0  0  # atno 5225 bound_to 1070

$$$$
A_118|SEH_inhibs_minimized|sdf|11|dock10
  -GOLD-   41821 9143D 1   1.00000     0.00000

 71 75  0  0  0  0  0  0  0  0  1 V2000
  -14.2374  -25.4208  -36.4914 C   0  0  0  0  0  0  0  0  0  0  0  0
  -11.5285  -25.8238  -33.9135 C   0  0  0  0  0  0  0  0  0  0  0  0
  -11.9920  -27.5462  -35.7074 C   0  0  0  0  0  0  0  0  0  0  0  0
  -10.1942  -25.4845  -34.5844 C   0  0  0  0  0  0  0  0  0  0  0  0
  -10.6590  -27.2052  -36.3794 C   0  0  0  0  0  0  0  0  0  0  0  0
  -18.1026  -22.6535  -38.7970 C   0  0  0  0  0  0  0  0  0  0  0  0
  -18.1689  -25.1263  -39.2097 C   0  0  0  0  0  0  0  0  0  0  0  0
  -16.8547  -23.6349  -40.7386 C   0  0  0  0  0  0  0  0  0  0  0  0
  -16.9116  -24.2170  -37.2399 C   0  0  0  0  0  0  0  0  0  0  0  0
  -15.5962  -22.7239  -38.7704 C   0  0  0  0  0  0  0  0  0  0  0  0
  -15.6622  -25.2005  -39.1843 C   0  0  0  0  0  0  0  0  0  0  0  0
   -4.3901  -29.5539  -33.7793 C   0  0  0  0  0  0  0  0  0  0  0  0
   -4.6179  -31.6539  -34.9356 C   0  0  0  0  0  0  0  0  0  0  0  0
   -3.3175  -30.1880  -32.8982 C   0  0  0  0  0  0  0  0  0  0  0  0
   -3.5408  -32.2386  -34.0266 C   0  0  0  0  0  0  0  0  0  0  0  0
  -18.1569  -24.0358  -38.1249 C   0  0  0  0  0  0  0  0  0  0  0  0
  -16.8361  -22.5367  -39.6618 C   0  0  0  0  0  0  0  0  0  0  0  0
  -16.9027  -25.0225  -40.0768 C   0  0  0  0  0  0  0  0  0  0  0  0
  -12.5604  -26.3715  -34.9048 C   0  0  2  0  0  0  0  0  0  0  0  0
   -9.6346  -26.6603  -35.3840 C   0  0  2  0  0  0  0  0  0  0  0  0
  -15.6266  -24.1109  -38.0909 C   0  0  0  0  0  0  0  0  0  0  0  0
   -7.3643  -29.1534  -34.3072 C   0  0  0  0  0  0  0  0  0  0  0  0
   -6.3673  -29.9996  -35.0879 C   0  0  0  0  0  0  0  0  0  0  0  0
   -8.5711  -28.7421  -35.1419 C   0  0  0  0  0  0  0  0  0  0  0  0
   -5.3367  -30.5830  -34.2315 N   0  0  0  0  0  0  0  0  0  0  0  0
  -13.0432  -25.3277  -35.7817 N   0  0  0  0  0  0  0  0  0  0  0  0
  -14.4580  -24.2790  -37.2550 N   0  0  0  0  0  0  0  0  0  0  0  0
  -14.9991  -26.3861  -36.4489 O   0  0  0  0  0  0  0  0  0  0  0  0
   -2.6323  -31.2179  -33.6119 O   0  0  0  0  0  0  0  0  0  0  0  0
   -9.2507  -27.6899  -34.4744 O   0  0  0  0  0  0  0  0  0  0  0  0
  -11.3549  -26.5720  -33.1297 H   0  0  0  0  0  0  0  0  0  0  0  0
  -11.9178  -24.9291  -33.4127 H   0  0  0  0  0  0  0  0  0  0  0  0
  -12.7091  -27.8682  -36.4722 H   0  0  0  0  0  0  0  0  0  0  0  0
  -11.8452  -28.4005  -35.0346 H   0  0  0  0  0  0  0  0  0  0  0  0
  -10.3284  -24.6222  -35.2484 H   0  0  0  0  0  0  0  0  0  0  0  0
   -9.4795  -25.1896  -33.8067 H   0  0  0  0  0  0  0  0  0  0  0  0
  -10.2695  -28.1109  -36.8591 H   0  0  0  0  0  0  0  0  0  0  0  0
  -10.8276  -26.4649  -37.1708 H   0  0  0  0  0  0  0  0  0  0  0  0
  -18.9946  -22.5038  -39.4176 H   0  0  0  0  0  0  0  0  0  0  0  0
  -18.1095  -21.8652  -38.0342 H   0  0  0  0  0  0  0  0  0  0  0  0
  -18.2237  -26.1177  -38.7436 H   0  0  0  0  0  0  0  0  0  0  0  0
  -19.0619  -25.0197  -39.8374 H   0  0  0  0  0  0  0  0  0  0  0  0
  -17.7249  -23.5021  -41.3932 H   0  0  0  0  0  0  0  0  0  0  0  0
  -15.9636  -23.5527  -41.3730 H   0  0  0  0  0  0  0  0  0  0  0  0
  -16.9064  -23.4586  -36.4460 H   0  0  0  0  0  0  0  0  0  0  0  0
  -16.9522  -25.1908  -36.7340 H   0  0  0  0  0  0  0  0  0  0  0  0
  -14.6846  -22.6163  -39.3729 H   0  0  0  0  0  0  0  0  0  0  0  0
  -15.5587  -21.9302  -38.0125 H   0  0  0  0  0  0  0  0  0  0  0  0
  -15.6725  -26.1982  -38.7262 H   0  0  0  0  0  0  0  0  0  0  0  0
  -14.7532  -25.1536  -39.7984 H   0  0  0  0  0  0  0  0  0  0  0  0
   -4.9142  -28.7867  -33.2029 H   0  0  0  0  0  0  0  0  0  0  0  0
   -3.9144  -29.0750  -34.6416 H   0  0  0  0  0  0  0  0  0  0  0  0
   -4.1513  -31.2601  -35.8448 H   0  0  0  0  0  0  0  0  0  0  0  0
   -5.3112  -32.4503  -35.2193 H   0  0  0  0  0  0  0  0  0  0  0  0
   -2.5783  -29.4332  -32.6109 H   0  0  0  0  0  0  0  0  0  0  0  0
   -3.7444  -30.6024  -31.9770 H   0  0  0  0  0  0  0  0  0  0  0  0
   -3.9747  -32.7232  -33.1432 H   0  0  0  0  0  0  0  0  0  0  0  0
   -2.9653  -32.9953  -34.5692 H   0  0  0  0  0  0  0  0  0  0  0  0
  -19.0614  -24.1139  -37.5116 H   0  0  0  0  0  0  0  0  0  0  0  0
  -16.8034  -21.5508  -40.1389 H   0  0  0  0  0  0  0  0  0  0  0  0
  -16.9178  -25.8003  -40.8485 H   0  0  0  0  0  0  0  0  0  0  0  0
  -13.4406  -26.7136  -34.3488 H   0  0  0  0  0  0  0  0  0  0  0  0
   -8.7309  -26.3419  -35.9153 H   0  0  0  0  0  0  0  0  0  0  0  0
   -7.7125  -29.7181  -33.4333 H   0  0  0  0  0  0  0  0  0  0  0  0
   -6.8753  -28.2556  -33.9084 H   0  0  0  0  0  0  0  0  0  0  0  0
   -6.8826  -30.8311  -35.5785 H   0  0  0  0  0  0  0  0  0  0  0  0
   -5.8653  -29.4056  -35.8584 H   0  0  0  0  0  0  0  0  0  0  0  0
   -8.2667  -28.3833  -36.1300 H   0  0  0  0  0  0  0  0  0  0  0  0
   -9.2643  -29.5804  -35.2645 H   0  0  0  0  0  0  0  0  0  0  0  0
  -12.4842  -24.4865  -35.8848 H   0  0  0  0  0  0  0  0  0  0  0  0
  -13.7985  -23.5113  -37.1933 H   0  0  0  0  0  0  0  0  0  0  0  0
  1 26  1  0  0  0  0
  1 27  1  0  0  0  0
  1 28  2  0  0  0  0
  2  4  1  0  0  0  0
  2 19  1  0  0  0  0
  3  5  1  0  0  0  0
  3 19  1  0  0  0  0
  4 20  1  0  0  0  0
  5 20  1  0  0  0  0
  6 16  1  0  0  0  0
  6 17  1  0  0  0  0
  7 16  1  0  0  0  0
  7 18  1  0  0  0  0
  8 17  1  0  0  0  0
  8 18  1  0  0  0  0
  9 16  1  0  0  0  0
  9 21  1  0  0  0  0
 10 17  1  0  0  0  0
 10 21  1  0  0  0  0
 11 18  1  0  0  0  0
 11 21  1  0  0  0  0
 12 14  1  0  0  0  0
 12 25  1  0  0  0  0
 13 15  1  0  0  0  0
 13 25  1  0  0  0  0
 14 29  1  0  0  0  0
 15 29  1  0  0  0  0
 19 26  1  0  0  0  0
 20 30  1  0  0  0  0
 21 27  1  0  0  0  0
 22 23  1  0  0  0  0
 22 24  1  0  0  0  0
 23 25  1  0  0  0  0
 24 30  1  0  0  0  0
  2 31  1  0  0  0  0
  2 32  1  0  0  0  0
  3 33  1  0  0  0  0
  3 34  1  0  0  0  0
  4 35  1  0  0  0  0
  4 36  1  0  0  0  0
  5 37  1  0  0  0  0
  5 38  1  0  0  0  0
  6 39  1  0  0  0  0
  6 40  1  0  0  0  0
  7 41  1  0  0  0  0
  7 42  1  0  0  0  0
  8 43  1  0  0  0  0
  8 44  1  0  0  0  0
  9 45  1  0  0  0  0
  9 46  1  0  0  0  0
 10 47  1  0  0  0  0
 10 48  1  0  0  0  0
 11 49  1  0  0  0  0
 11 50  1  0  0  0  0
 12 51  1  0  0  0  0
 12 52  1  0  0  0  0
 13 53  1  0  0  0  0
 13 54  1  0  0  0  0
 14 55  1  0  0  0  0
 14 56  1  0  0  0  0
 15 57  1  0  0  0  0
 15 58  1  0  0  0  0
 16 59  1  0  0  0  0
 17 60  1  0  0  0  0
 18 61  1  0  0  0  0
 19 62  1  0  0  0  0
 20 63  1  0  0  0  0
 22 64  1  0  0  0  0
 22 65  1  0  0  0  0
 23 66  1  0  0  0  0
 23 67  1  0  0  0  0
 24 68  1  0  0  0  0
 24 69  1  0  0  0  0
 26 70  1  0  0  0  0
 27 71  1  0  0  0  0
M  END
> <SourceTag>
A_118

> <Gold.Version>
5.2

> <Gold.Id.Protein>
6HGV|6HGV_protein|mol2

> <Gold.Goldscore.Fitness>
69.1408

> <Gold.Goldscore.Internal.Vdw>
-12.2365

> <Gold.Goldscore.Internal.Torsion>
-5.0111

> <Gold.Goldscore.External.Vdw>
52.0837

> <Gold.Goldscore.Internal.HBond>
0.0000

> <Gold.Goldscore.External.HBond>
2.3467

> <Gold.Goldscore.Internal.Correction>
-12.4267

> <Gold.Goldscore.Hbonds>
donor molecule, donor type, donor heavy atom, donor atom, acceptor molecule, acceptor atom, score
      L1  H    26    70       P1   854  0.02
      L1  H    27    71       P1   854  0.37

> <Gold.Goldscore.Internal.Vdw.Weighted>
-12.2365

> <Gold.Goldscore.Internal.Torsion.Weighted>
-5.0111

> <Gold.Goldscore.External.Vdw.Weighted>
71.6150

> <Gold.Goldscore.Internal.HBond.Weighted>
0.0000

> <Gold.Goldscore.External.HBond.Weighted>
2.3467

> <Gold.Goldscore.Internal.Correction.Weighted>
-12.4267

> <Gold.Protein.RotatedTorsions>
[ 3781 1176 1175 1172 ] final    5.31 input   60.00 | X-H torsion
[ 3847 1247 1246 1244 ] final  -17.20 input   60.00 | X-H torsion
[ 4507 1931 1930 1928 ] final   88.52 input   60.00 | X-H torsion
[ 3677 1070 1069 1066 ] final -159.14 input   60.00 | X-H torsion
[ 3525  925  924  922 ] final  175.98 input   59.99 | X-H torsion
[ 4531 1957 1955 1953 ] final  -63.39 input   60.00 | X-H torsion

> <Gold.Protein.ActiveResidues>
 PHE267  PRO268  MET310  ASP335  TRP336  MET339  TYR343  THR360  PRO361  ILE363 
 PRO371  SER374  ILE375  ASN378  PHE381  TYR383  GLN384  PHE387  LEU408  LEU417 
 MET419  LEU428  TYR466  MET469  ASN472  ASP496  VAL498  LEU499  MET503  HIS524 
 TRP525 

> <Gold.Protein.RotatedAtoms>
   -2.1955  -30.2503  -29.4555 H   0  0  0  0  0  0  0  0  0  0  0  0  # atno 3525 bound_to 925 
  -11.1246  -23.0662  -31.3252 H   0  0  0  0  0  0  0  0  0  0  0  0  # atno 3677 bound_to 1070
  -10.8170  -37.2766  -33.5946 H   0  0  0  0  0  0  0  0  0  0  0  0  # atno 3781 bound_to 1176
  -15.8948  -28.5078  -37.0627 H   0  0  0  0  0  0  0  0  0  0  0  0  # atno 3847 bound_to 1247
  -12.4668  -24.2764  -38.9821 H   0  0  0  0  0  0  0  0  0  0  0  0  # atno 4507 bound_to 1931
   -1.9268  -32.2302  -36.8612 H   0  0  0  0  0  0  0  0  0  0  0  0  # atno 4531 bound_to 1957
   -9.5191  -36.3220  -33.8234 LP  0  0  0  0  0  0  0  0  0  0  0  0  # atno 5205 bound_to 1176
   -9.7691  -37.0316  -32.3740 LP  0  0  0  0  0  0  0  0  0  0  0  0  # atno 5206 bound_to 1176
  -15.2889  -27.1907  -37.8017 LP  0  0  0  0  0  0  0  0  0  0  0  0  # atno 5215 bound_to 1247
  -14.3758  -28.5355  -37.6456 LP  0  0  0  0  0  0  0  0  0  0  0  0  # atno 5216 bound_to 1247
  -13.5480  -25.3763  -39.5009 LP  0  0  0  0  0  0  0  0  0  0  0  0  # atno 5217 bound_to 1931
  -13.1842  -24.0836  -40.4299 LP  0  0  0  0  0  0  0  0  0  0  0  0  # atno 5218 bound_to 1931
  -12.1563  -22.2580  -30.3606 LP  0  0  0  0  0  0  0  0  0  0  0  0  # atno 5224 bound_to 1070
  -12.5789  -23.7090  -30.9792 LP  0  0  0  0  0  0  0  0  0  0  0  0  # atno 5225 bound_to 1070

$$$$
A_47|SEH_inhibs_minimized|sdf|33|dock1
  -GOLD-   41821 9563D 1   1.00000     0.00000

 55 58  0  0  0  0  0  0  0  0  1 V2000
   -7.1282  -30.3922  -32.0113 C   0  0  0  0  0  0  0  0  0  0  0  0
   -8.2933  -31.7349  -30.3752 C   0  0  0  0  0  0  0  0  0  0  0  0
  -10.0956  -31.7738  -34.2144 C   0  0  0  0  0  0  0  0  0  0  0  0
  -11.0794  -32.5608  -32.1529 C   0  0  0  0  0  0  0  0  0  0  0  0
   -5.9078  -30.7647  -31.4481 C   0  0  0  0  0  0  0  0  0  0  0  0
   -7.0728  -32.1075  -29.8120 C   0  0  0  0  0  0  0  0  0  0  0  0
  -10.6813  -32.8378  -34.9002 C   0  0  0  0  0  0  0  0  0  0  0  0
  -11.6652  -33.6249  -32.8387 C   0  0  0  0  0  0  0  0  0  0  0  0
  -15.6832  -24.3597  -37.0194 C   0  0  0  0  0  0  0  0  0  0  0  0
  -14.6503  -23.7644  -37.7096 C   0  0  0  0  0  0  0  0  0  0  0  0
  -14.1887  -25.7364  -35.9702 C   0  0  0  0  0  0  0  0  0  0  0  0
   -8.3210  -30.8774  -31.4750 C   0  0  0  0  0  0  0  0  0  0  0  0
  -10.2948  -31.6352  -32.8407 C   0  0  0  0  0  0  0  0  0  0  0  0
   -5.8801  -31.6224  -30.3484 C   0  0  0  0  0  0  0  0  0  0  0  0
  -11.4661  -33.7633  -34.2123 C   0  0  0  0  0  0  0  0  0  0  0  0
  -13.1558  -25.1411  -36.6606 C   0  0  0  0  0  0  0  0  0  0  0  0
  -11.6669  -28.3342  -33.9503 C   0  0  0  0  0  0  0  0  0  0  0  0
  -11.0805  -24.8911  -35.2414 C   0  0  0  0  0  0  0  0  0  0  0  0
  -11.4167  -25.7945  -34.0609 C   0  0  0  0  0  0  0  0  0  0  0  0
  -11.5158  -27.0746  -36.0958 C   0  0  0  0  0  0  0  0  0  0  0  0
  -11.7224  -25.5958  -36.4460 C   0  0  1  0  0  0  0  0  0  0  0  0
  -10.6180  -29.7868  -31.0837 C   0  0  0  0  0  0  0  0  0  0  0  0
  -11.9473  -29.3368  -31.6941 C   0  0  0  0  0  0  0  0  0  0  0  0
   -9.6537  -30.4703  -32.0905 C   0  0  0  0  0  0  0  0  0  0  0  0
  -15.4710  -25.3565  -36.1374 N   0  0  0  0  0  0  0  0  0  0  0  0
  -13.3681  -24.1444  -37.5426 N   0  0  0  0  0  0  0  0  0  0  0  0
  -11.5371  -27.1301  -34.6388 N   0  0  0  0  0  0  0  0  0  0  0  0
  -11.7983  -28.1997  -32.5728 N   0  0  0  0  0  0  0  0  0  0  0  0
  -11.6683  -29.4295  -34.5186 O   0  0  0  0  0  0  0  0  0  0  0  0
   -4.7084  -31.9800  -29.8068 F   0  0  0  0  0  0  0  0  0  0  0  0
  -12.0281  -34.7856  -34.8703 F   0  0  0  0  0  0  0  0  0  0  0  0
   -7.1402  -29.7231  -32.8677 H   0  0  0  0  0  0  0  0  0  0  0  0
   -9.2177  -32.1172  -29.9504 H   0  0  0  0  0  0  0  0  0  0  0  0
   -9.4854  -31.0576  -34.7585 H   0  0  0  0  0  0  0  0  0  0  0  0
  -11.2394  -32.4611  -31.0826 H   0  0  0  0  0  0  0  0  0  0  0  0
   -4.9792  -30.3865  -31.8652 H   0  0  0  0  0  0  0  0  0  0  0  0
   -7.0512  -32.7749  -28.9556 H   0  0  0  0  0  0  0  0  0  0  0  0
  -10.5258  -32.9460  -35.9695 H   0  0  0  0  0  0  0  0  0  0  0  0
  -12.2757  -34.3458  -32.3032 H   0  0  0  0  0  0  0  0  0  0  0  0
  -16.7134  -24.0539  -37.1541 H   0  0  0  0  0  0  0  0  0  0  0  0
  -14.8219  -22.9636  -38.4182 H   0  0  0  0  0  0  0  0  0  0  0  0
  -14.0255  -26.5382  -35.2596 H   0  0  0  0  0  0  0  0  0  0  0  0
  -11.4240  -23.8633  -35.0882 H   0  0  0  0  0  0  0  0  0  0  0  0
   -9.9918  -24.8676  -35.3782 H   0  0  0  0  0  0  0  0  0  0  0  0
  -10.6418  -25.7733  -33.2890 H   0  0  0  0  0  0  0  0  0  0  0  0
  -12.3800  -25.5325  -33.6102 H   0  0  0  0  0  0  0  0  0  0  0  0
  -12.2666  -27.7496  -36.5201 H   0  0  0  0  0  0  0  0  0  0  0  0
  -10.5225  -27.4145  -36.4118 H   0  0  0  0  0  0  0  0  0  0  0  0
  -11.1630  -25.3265  -37.3865 H   0  0  0  0  0  0  0  0  0  0  0  0
  -10.1472  -28.9100  -30.6239 H   0  0  0  0  0  0  0  0  0  0  0  0
  -10.8307  -30.4876  -30.2646 H   0  0  0  0  0  0  0  0  0  0  0  0
  -12.6815  -29.0745  -30.9268 H   0  0  0  0  0  0  0  0  0  0  0  0
  -12.3696  -30.1485  -32.2956 H   0  0  0  0  0  0  0  0  0  0  0  0
   -9.4464  -29.7042  -32.8517 H   0  0  0  0  0  0  0  0  0  0  0  0
  -11.7890  -27.2683  -32.1695 H   0  0  0  0  0  0  0  0  0  0  0  0
  1  5  1  0  0  0  0
  1 12  2  0  0  0  0
  2  6  2  0  0  0  0
  2 12  1  0  0  0  0
  3  7  1  0  0  0  0
  3 13  2  0  0  0  0
  4  8  2  0  0  0  0
  4 13  1  0  0  0  0
  5 14  2  0  0  0  0
  6 14  1  0  0  0  0
  7 15  2  0  0  0  0
  8 15  1  0  0  0  0
  9 10  2  0  0  0  0
  9 25  1  0  0  0  0
 10 26  1  0  0  0  0
 11 16  1  0  0  0  0
 11 25  2  0  0  0  0
 12 24  1  0  0  0  0
 13 24  1  0  0  0  0
 14 30  1  0  0  0  0
 15 31  1  0  0  0  0
 16 21  1  0  0  0  0
 16 26  2  0  0  0  0
 17 27  1  0  0  0  0
 17 28  1  0  0  0  0
 17 29  2  0  0  0  0
 18 19  1  0  0  0  0
 18 21  1  0  0  0  0
 19 27  1  0  0  0  0
 20 21  1  0  0  0  0
 20 27  1  0  0  0  0
 22 23  1  0  0  0  0
 22 24  1  0  0  0  0
 23 28  1  0  0  0  0
  1 32  1  0  0  0  0
  2 33  1  0  0  0  0
  3 34  1  0  0  0  0
  4 35  1  0  0  0  0
  5 36  1  0  0  0  0
  6 37  1  0  0  0  0
  7 38  1  0  0  0  0
  8 39  1  0  0  0  0
  9 40  1  0  0  0  0
 10 41  1  0  0  0  0
 11 42  1  0  0  0  0
 18 43  1  0  0  0  0
 18 44  1  0  0  0  0
 19 45  1  0  0  0  0
 19 46  1  0  0  0  0
 20 47  1  0  0  0  0
 20 48  1  0  0  0  0
 21 49  1  0  0  0  0
 22 50  1  0  0  0  0
 22 51  1  0  0  0  0
 23 52  1  0  0  0  0
 23 53  1  0  0  0  0
 24 54  1  0  0  0  0
 28 55  1  0  0  0  0
M  END
> <Name>
A_47

> <SourceTag>
A_47

> <Gold.Version>
5.2

> <Gold.Id.Protein>
6HGV|6HGV_protein|mol2

> <Gold.Goldscore.Fitness>
65.2677

> <Gold.Goldscore.Internal.Vdw>
-2.4178

> <Gold.Goldscore.Internal.Torsion>
-2.2077

> <Gold.Goldscore.External.Vdw>
47.8195

> <Gold.Goldscore.Internal.HBond>
0.0000

> <Gold.Goldscore.External.HBond>
0.5026

> <Gold.Goldscore.Internal.Correction>
-3.6388

> <Gold.Goldscore.Hbonds>
donor molecule, donor type, donor heavy atom, donor atom, acceptor molecule, acceptor atom, score
      P1  H  1256  3854       L1    29  0.25

> <Gold.Goldscore.Internal.Vdw.Weighted>
-2.4178

> <Gold.Goldscore.Internal.Torsion.Weighted>
-2.2077

> <Gold.Goldscore.External.Vdw.Weighted>
65.7518

> <Gold.Goldscore.Internal.HBond.Weighted>
0.0000

> <Gold.Goldscore.External.HBond.Weighted>
0.5026

> <Gold.Goldscore.Internal.Correction.Weighted>
-3.6388

> <Gold.Protein.RotatedTorsions>
[ 3781 1176 1175 1172 ] final  -51.20 input   60.00 | X-H torsion
[ 3847 1247 1246 1244 ] final  110.31 input   60.00 | X-H torsion
[ 4507 1931 1930 1928 ] final  -81.59 input   60.00 | X-H torsion
[ 3677 1070 1069 1066 ] final -101.64 input   60.00 | X-H torsion
[ 3525  925  924  922 ] final  -81.15 input   59.99 | X-H torsion
[ 4531 1957 1955 1953 ] final  -26.43 input   60.00 | X-H torsion

> <Gold.Protein.ActiveResidues>
 PHE267  PRO268  MET310  ASP335  TRP336  MET339  TYR343  THR360  PRO361  ILE363 
 PRO371  SER374  ILE375  ASN378  PHE381  TYR383  GLN384  PHE387  LEU408  LEU417 
 MET419  LEU428  TYR466  MET469  ASN472  ASP496  VAL498  LEU499  MET503  HIS524 
 TRP525 

> <Gold.Protein.RotatedAtoms>
   -3.5326  -29.6845  -29.2674 H   0  0  0  0  0  0  0  0  0  0  0  0  # atno 3525 bound_to 925 
  -11.7112  -23.7427  -31.4220 H   0  0  0  0  0  0  0  0  0  0  0  0  # atno 3677 bound_to 1070
  -10.3474  -36.7591  -34.1400 H   0  0  0  0  0  0  0  0  0  0  0  0  # atno 3781 bound_to 1176
  -14.3435  -28.4305  -37.7012 H   0  0  0  0  0  0  0  0  0  0  0  0  # atno 3847 bound_to 1247
  -13.6877  -25.0041  -40.1902 H   0  0  0  0  0  0  0  0  0  0  0  0  # atno 4507 bound_to 1931
   -2.5092  -32.2586  -36.7509 H   0  0  0  0  0  0  0  0  0  0  0  0  # atno 4531 bound_to 1957
   -9.2436  -36.4524  -32.9843 LP  0  0  0  0  0  0  0  0  0  0  0  0  # atno 5205 bound_to 1176
  -10.5175  -37.4224  -32.6638 LP  0  0  0  0  0  0  0  0  0  0  0  0  # atno 5206 bound_to 1176
  -15.8240  -28.6077  -37.0495 LP  0  0  0  0  0  0  0  0  0  0  0  0  # atno 5215 bound_to 1247
  -15.4028  -27.1964  -37.7547 LP  0  0  0  0  0  0  0  0  0  0  0  0  # atno 5216 bound_to 1247
  -12.6615  -23.7720  -39.9127 LP  0  0  0  0  0  0  0  0  0  0  0  0  # atno 5217 bound_to 1931
  -12.8412  -24.9549  -38.8014 LP  0  0  0  0  0  0  0  0  0  0  0  0  # atno 5218 bound_to 1931
  -11.3511  -22.2930  -30.7765 LP  0  0  0  0  0  0  0  0  0  0  0  0  # atno 5224 bound_to 1070
  -12.7935  -22.9927  -30.4658 LP  0  0  0  0  0  0  0  0  0  0  0  0  # atno 5225 bound_to 1070

$$$$
A_82|SEH_inhibs_minimized|sdf|50|dock5
  -GOLD-   4182110383D 1   1.00000     0.00000

 50 53  0  0  0  0  0  0  0  0  1 V2000
   -4.0760  -31.7652  -35.3766 C   0  0  0  0  0  0  0  0  0  0  0  0
  -17.0031  -24.4573  -38.3847 C   0  0  0  0  0  0  0  0  0  0  0  0
   -4.9307  -32.8250  -35.6802 C   0  0  0  0  0  0  0  0  0  0  0  0
   -4.6020  -30.5077  -35.0805 C   0  0  0  0  0  0  0  0  0  0  0  0
  -16.9649  -25.5452  -37.5128 C   0  0  0  0  0  0  0  0  0  0  0  0
  -15.8741  -23.6547  -38.5488 C   0  0  0  0  0  0  0  0  0  0  0  0
   -6.3115  -32.6271  -35.6875 C   0  0  0  0  0  0  0  0  0  0  0  0
   -5.9828  -30.3100  -35.0878 C   0  0  0  0  0  0  0  0  0  0  0  0
  -15.7974  -25.8307  -36.8048 C   0  0  0  0  0  0  0  0  0  0  0  0
  -14.7066  -23.9404  -37.8408 C   0  0  0  0  0  0  0  0  0  0  0  0
   -6.8375  -31.3697  -35.3914 C   0  0  0  0  0  0  0  0  0  0  0  0
  -14.6683  -25.0283  -36.9688 C   0  0  0  0  0  0  0  0  0  0  0  0
   -9.8295  -28.1153  -34.4607 C   0  0  0  0  0  0  0  0  0  0  0  0
  -12.3765  -25.4844  -34.0661 C   0  0  0  0  0  0  0  0  0  0  0  0
  -11.0400  -25.4875  -36.1897 C   0  0  0  0  0  0  0  0  0  0  0  0
   -9.1652  -31.9038  -34.4065 C   0  0  0  0  0  0  0  0  0  0  0  0
  -13.6439  -25.7769  -34.8712 C   0  0  0  0  0  0  0  0  0  0  0  0
  -12.3129  -25.7905  -36.9823 C   0  0  0  0  0  0  0  0  0  0  0  0
   -8.3054  -31.1595  -35.3992 C   0  0  1  0  0  0  0  0  0  0  0  0
  -11.1088  -25.9977  -34.7506 C   0  0  0  0  0  0  0  0  0  0  0  0
   -8.9553  -30.4275  -34.2422 C   0  0  1  0  0  0  0  0  0  0  0  0
  -13.4962  -25.3150  -36.2580 N   0  0  0  0  0  0  0  0  0  0  0  0
  -11.0211  -27.4381  -34.7004 N   0  0  0  0  0  0  0  0  0  0  0  0
  -10.0223  -29.4950  -34.4645 N   0  0  0  0  0  0  0  0  0  0  0  0
   -8.7433  -27.5698  -34.2692 O   0  0  0  0  0  0  0  0  0  0  0  0
   -3.0012  -31.9193  -35.3706 H   0  0  0  0  0  0  0  0  0  0  0  0
  -17.9121  -24.2349  -38.9360 H   0  0  0  0  0  0  0  0  0  0  0  0
   -4.5212  -33.8039  -35.9114 H   0  0  0  0  0  0  0  0  0  0  0  0
   -3.9369  -29.6828  -34.8434 H   0  0  0  0  0  0  0  0  0  0  0  0
  -17.8441  -26.1700  -37.3851 H   0  0  0  0  0  0  0  0  0  0  0  0
  -15.9040  -22.8076  -39.2278 H   0  0  0  0  0  0  0  0  0  0  0  0
   -6.9689  -33.4590  -35.9255 H   0  0  0  0  0  0  0  0  0  0  0  0
   -6.3828  -29.3264  -34.8555 H   0  0  0  0  0  0  0  0  0  0  0  0
  -15.7786  -26.6810  -36.1278 H   0  0  0  0  0  0  0  0  0  0  0  0
  -13.8326  -23.3086  -37.9763 H   0  0  0  0  0  0  0  0  0  0  0  0
  -12.2871  -24.3976  -33.9374 H   0  0  0  0  0  0  0  0  0  0  0  0
  -12.4755  -25.9157  -33.0628 H   0  0  0  0  0  0  0  0  0  0  0  0
  -10.1763  -25.9170  -36.7111 H   0  0  0  0  0  0  0  0  0  0  0  0
  -10.8905  -24.3999  -36.1692 H   0  0  0  0  0  0  0  0  0  0  0  0
  -10.1334  -32.2534  -34.7466 H   0  0  0  0  0  0  0  0  0  0  0  0
   -8.6872  -32.5624  -33.6907 H   0  0  0  0  0  0  0  0  0  0  0  0
  -13.8582  -26.8533  -34.8589 H   0  0  0  0  0  0  0  0  0  0  0  0
  -14.4888  -25.2679  -34.3902 H   0  0  0  0  0  0  0  0  0  0  0  0
  -12.2419  -25.2963  -37.9595 H   0  0  0  0  0  0  0  0  0  0  0  0
  -12.3954  -26.8695  -37.1649 H   0  0  0  0  0  0  0  0  0  0  0  0
   -8.7480  -31.0045  -36.3796 H   0  0  0  0  0  0  0  0  0  0  0  0
  -10.2304  -25.6311  -34.2003 H   0  0  0  0  0  0  0  0  0  0  0  0
   -8.3171  -30.1205  -33.4198 H   0  0  0  0  0  0  0  0  0  0  0  0
  -11.8663  -27.9806  -34.8465 H   0  0  0  0  0  0  0  0  0  0  0  0
  -10.9570  -29.8555  -34.6317 H   0  0  0  0  0  0  0  0  0  0  0  0
  1  3  2  0  0  0  0
  1  4  1  0  0  0  0
  2  5  2  0  0  0  0
  2  6  1  0  0  0  0
  3  7  1  0  0  0  0
  4  8  2  0  0  0  0
  5  9  1  0  0  0  0
  6 10  2  0  0  0  0
  7 11  2  0  0  0  0
  8 11  1  0  0  0  0
  9 12  2  0  0  0  0
 10 12  1  0  0  0  0
 11 19  1  0  0  0  0
 12 22  1  0  0  0  0
 13 23  1  0  0  0  0
 13 24  1  0  0  0  0
 13 25  2  0  0  0  0
 14 17  1  0  0  0  0
 14 20  1  0  0  0  0
 15 18  1  0  0  0  0
 15 20  1  0  0  0  0
 16 19  1  0  0  0  0
 16 21  1  0  0  0  0
 17 22  1  0  0  0  0
 18 22  1  0  0  0  0
 19 21  1  0  0  0  0
 20 23  1  0  0  0  0
 21 24  1  0  0  0  0
  1 26  1  0  0  0  0
  2 27  1  0  0  0  0
  3 28  1  0  0  0  0
  4 29  1  0  0  0  0
  5 30  1  0  0  0  0
  6 31  1  0  0  0  0
  7 32  1  0  0  0  0
  8 33  1  0  0  0  0
  9 34  1  0  0  0  0
 10 35  1  0  0  0  0
 14 36  1  0  0  0  0
 14 37  1  0  0  0  0
 15 38  1  0  0  0  0
 15 39  1  0  0  0  0
 16 40  1  0  0  0  0
 16 41  1  0  0  0  0
 17 42  1  0  0  0  0
 17 43  1  0  0  0  0
 18 44  1  0  0  0  0
 18 45  1  0  0  0  0
 19 46  1  0  0  0  0
 20 47  1  0  0  0  0
 21 48  1  0  0  0  0
 23 49  1  0  0  0  0
 24 50  1  0  0  0  0
M  END
> <Name>
A_82

> <SourceTag>
A_82

> <Gold.Version>
5.2

> <Gold.Id.Protein>
6HGV|6HGV_protein|mol2

> <Gold.Goldscore.Fitness>
62.7542

> <Gold.Goldscore.Internal.Vdw>
1.3214

> <Gold.Goldscore.Internal.Torsion>
-5.5561

> <Gold.Goldscore.External.Vdw>
46.7024

> <Gold.Goldscore.Internal.HBond>
0.0000

> <Gold.Goldscore.External.HBond>
0.0000

> <Gold.Goldscore.Internal.Correction>
-2.7731

> <Gold.Goldscore.Internal.Vdw.Weighted>
1.3214

> <Gold.Goldscore.Internal.Torsion.Weighted>
-5.5561

> <Gold.Goldscore.External.Vdw.Weighted>
64.2158

> <Gold.Goldscore.Internal.HBond.Weighted>
0.0000

> <Gold.Goldscore.External.HBond.Weighted>
0.0000

> <Gold.Goldscore.Internal.Correction.Weighted>
-2.7731

> <Gold.Protein.RotatedTorsions>
[ 3781 1176 1175 1172 ] final  -69.30 input   60.00 | X-H torsion
[ 3847 1247 1246 1244 ] final  134.64 input   60.00 | X-H torsion
[ 4507 1931 1930 1928 ] final  -97.42 input   60.00 | X-H torsion
[ 3677 1070 1069 1066 ] final  -58.78 input   60.00 | X-H torsion
[ 3525  925  924  922 ] final   41.99 input   59.99 | X-H torsion
[ 4531 1957 1955 1953 ] final  125.14 input   60.00 | X-H torsion

> <Gold.Protein.ActiveResidues>
 PHE267  PRO268  MET310  ASP335  TRP336  MET339  TYR343  THR360  PRO361  ILE363 
 PRO371  SER374  ILE375  ASN378  PHE381  TYR383  GLN384  PHE387  LEU408  LEU417 
 MET419  LEU428  TYR466  MET469  ASN472  ASP496  VAL498  LEU499  MET503  HIS524 
 TRP525 

> <Gold.Protein.RotatedAtoms>
   -3.0738  -29.7400  -30.8478 H   0  0  0  0  0  0  0  0  0  0  0  0  # atno 3525 bound_to 925 
  -12.3377  -23.8205  -31.1583 H   0  0  0  0  0  0  0  0  0  0  0  0  # atno 3677 bound_to 1070
  -10.1052  -36.5923  -34.1538 H   0  0  0  0  0  0  0  0  0  0  0  0  # atno 3781 bound_to 1176
  -14.3191  -28.0659  -37.8502 H   0  0  0  0  0  0  0  0  0  0  0  0  # atno 3847 bound_to 1247
  -13.6359  -24.8031  -40.3430 H   0  0  0  0  0  0  0  0  0  0  0  0  # atno 4507 bound_to 1931
   -2.2975  -34.0601  -36.8223 H   0  0  0  0  0  0  0  0  0  0  0  0  # atno 4531 bound_to 1957
   -9.3127  -36.5929  -32.7325 LP  0  0  0  0  0  0  0  0  0  0  0  0  # atno 5205 bound_to 1176
  -10.6924  -37.4499  -32.9018 LP  0  0  0  0  0  0  0  0  0  0  0  0  # atno 5206 bound_to 1176
  -15.5139  -28.8548  -37.0768 LP  0  0  0  0  0  0  0  0  0  0  0  0  # atno 5215 bound_to 1247
  -15.7376  -27.3166  -37.5774 LP  0  0  0  0  0  0  0  0  0  0  0  0  # atno 5216 bound_to 1247
  -12.5426  -23.7946  -39.6831 LP  0  0  0  0  0  0  0  0  0  0  0  0  # atno 5217 bound_to 1931
  -13.0122  -25.1349  -38.8771 LP  0  0  0  0  0  0  0  0  0  0  0  0  # atno 5218 bound_to 1931
  -11.0861  -22.7808  -31.1845 LP  0  0  0  0  0  0  0  0  0  0  0  0  # atno 5224 bound_to 1070
  -12.4276  -22.4266  -30.3233 LP  0  0  0  0  0  0  0  0  0  0  0  0  # atno 5225 bound_to 1070

$$$$
A_84|SEH_inhibs_minimized|sdf|51|dock1
  -GOLD-   4182110393D 1   1.00000     0.00000

 48 50  0  0  0  0  0  0  0  0  1 V2000
  -15.1382  -26.1976  -35.5873 C   0  0  0  0  0  0  0  0  0  0  0  0
  -15.3995  -24.2676  -37.0171 C   0  0  0  0  0  0  0  0  0  0  0  0
  -21.0434  -23.3100  -37.0307 C   0  0  0  0  0  0  0  0  0  0  0  0
  -13.8087  -26.3171  -35.9916 C   0  0  0  0  0  0  0  0  0  0  0  0
  -14.0699  -24.3872  -37.4214 C   0  0  0  0  0  0  0  0  0  0  0  0
  -22.3373  -22.9253  -37.3819 C   0  0  0  0  0  0  0  0  0  0  0  0
  -10.8049  -24.9968  -35.2717 C   0  0  0  0  0  0  0  0  0  0  0  0
  -21.9392  -24.7609  -35.3191 C   0  0  0  0  0  0  0  0  0  0  0  0
  -10.3256  -27.0465  -36.4352 C   0  0  0  0  0  0  0  0  0  0  0  0
   -9.8561  -25.3706  -34.3337 C   0  0  0  0  0  0  0  0  0  0  0  0
  -23.2332  -24.3762  -35.6704 C   0  0  0  0  0  0  0  0  0  0  0  0
  -15.9337  -25.1729  -36.1001 C   0  0  0  0  0  0  0  0  0  0  0  0
  -20.8443  -24.2278  -35.9994 C   0  0  0  0  0  0  0  0  0  0  0  0
  -13.2744  -25.4120  -36.9086 C   0  0  0  0  0  0  0  0  0  0  0  0
  -11.0382  -25.8563  -36.3394 C   0  0  0  0  0  0  0  0  0  0  0  0
  -23.4322  -23.4584  -36.7017 C   0  0  0  0  0  0  0  0  0  0  0  0
   -9.3980  -27.3283  -35.4453 C   0  0  0  0  0  0  0  0  0  0  0  0
   -8.6249  -28.5573  -35.4944 C   0  0  0  0  0  0  0  0  0  0  0  0
  -18.3709  -24.5657  -36.4322 C   0  0  0  0  0  0  0  0  0  0  0  0
   -6.5849  -29.7572  -34.6639 C   0  0  0  0  0  0  0  0  0  0  0  0
  -24.3798  -24.9703  -34.9177 C   0  0  0  0  0  0  0  0  0  0  0  0
   -9.1440  -26.5181  -34.3932 N   0  0  0  0  0  0  0  0  0  0  0  0
  -17.2825  -25.0515  -35.6901 N   0  0  0  0  0  0  0  0  0  0  0  0
  -19.5499  -24.6131  -35.6488 N   0  0  0  0  0  0  0  0  0  0  0  0
   -7.4695  -28.6149  -34.7051 N   0  0  0  0  0  0  0  0  0  0  0  0
   -8.9787  -29.4986  -36.2277 O   0  0  0  0  0  0  0  0  0  0  0  0
  -18.3163  -24.1589  -37.5883 O   0  0  0  0  0  0  0  0  0  0  0  0
  -11.9771  -25.5286  -37.3032 O   0  0  0  0  0  0  0  0  0  0  0  0
  -25.5417  -25.0031  -35.6327 F   0  0  0  0  0  0  0  0  0  0  0  0
  -24.1631  -26.2593  -34.5258 F   0  0  0  0  0  0  0  0  0  0  0  0
  -24.6680  -24.2812  -33.7768 F   0  0  0  0  0  0  0  0  0  0  0  0
  -25.0182  -22.9591  -37.1649 Cl  0  0  0  0  0  0  0  0  0  0  0  0
  -15.5441  -26.9085  -34.8720 H   0  0  0  0  0  0  0  0  0  0  0  0
  -16.0100  -23.4652  -37.4235 H   0  0  0  0  0  0  0  0  0  0  0  0
  -20.1979  -22.8899  -37.5692 H   0  0  0  0  0  0  0  0  0  0  0  0
  -13.1940  -27.1174  -35.5886 H   0  0  0  0  0  0  0  0  0  0  0  0
  -13.6594  -23.6791  -38.1361 H   0  0  0  0  0  0  0  0  0  0  0  0
  -22.4756  -22.2088  -38.1879 H   0  0  0  0  0  0  0  0  0  0  0  0
  -11.3458  -24.0624  -35.1713 H   0  0  0  0  0  0  0  0  0  0  0  0
  -21.7847  -25.4775  -34.5152 H   0  0  0  0  0  0  0  0  0  0  0  0
  -10.4949  -27.7298  -37.2614 H   0  0  0  0  0  0  0  0  0  0  0  0
   -9.6383  -24.7354  -33.4814 H   0  0  0  0  0  0  0  0  0  0  0  0
   -6.0610  -29.7922  -33.7052 H   0  0  0  0  0  0  0  0  0  0  0  0
   -5.8456  -29.6918  -35.4668 H   0  0  0  0  0  0  0  0  0  0  0  0
   -7.1554  -30.6817  -34.7872 H   0  0  0  0  0  0  0  0  0  0  0  0
  -17.4889  -25.3532  -34.7412 H   0  0  0  0  0  0  0  0  0  0  0  0
  -19.4224  -24.9808  -34.7000 H   0  0  0  0  0  0  0  0  0  0  0  0
   -7.1915  -27.7965  -34.1737 H   0  0  0  0  0  0  0  0  0  0  0  0
  1  4  1  0  0  0  0
  1 12  2  0  0  0  0
  2  5  2  0  0  0  0
  2 12  1  0  0  0  0
  3  6  2  0  0  0  0
  3 13  1  0  0  0  0
  4 14  2  0  0  0  0
  5 14  1  0  0  0  0
  6 16  1  0  0  0  0
  7 10  1  0  0  0  0
  7 15  2  0  0  0  0
  8 11  1  0  0  0  0
  8 13  2  0  0  0  0
  9 15  1  0  0  0  0
  9 17  2  0  0  0  0
 10 22  2  0  0  0  0
 11 16  2  0  0  0  0
 11 21  1  0  0  0  0
 12 23  1  0  0  0  0
 13 24  1  0  0  0  0
 14 28  1  0  0  0  0
 15 28  1  0  0  0  0
 16 32  1  0  0  0  0
 17 18  1  0  0  0  0
 17 22  1  0  0  0  0
 18 25  1  0  0  0  0
 18 26  2  0  0  0  0
 19 23  1  0  0  0  0
 19 24  1  0  0  0  0
 19 27  2  0  0  0  0
 20 25  1  0  0  0  0
 21 29  1  0  0  0  0
 21 30  1  0  0  0  0
 21 31  1  0  0  0  0
  1 33  1  0  0  0  0
  2 34  1  0  0  0  0
  3 35  1  0  0  0  0
  4 36  1  0  0  0  0
  5 37  1  0  0  0  0
  6 38  1  0  0  0  0
  7 39  1  0  0  0  0
  8 40  1  0  0  0  0
  9 41  1  0  0  0  0
 10 42  1  0  0  0  0
 20 43  1  0  0  0  0
 20 44  1  0  0  0  0
 20 45  1  0  0  0  0
 23 46  1  0  0  0  0
 24 47  1  0  0  0  0
 25 48  1  0  0  0  0
M  END
> <Name>
A_84

> <SourceTag>
A_84

> <Gold.Version>
5.2

> <Gold.Id.Protein>
6HGV|6HGV_protein|mol2

> <Gold.Goldscore.Fitness>
86.1938

> <Gold.Goldscore.Internal.Vdw>
-2.5329

> <Gold.Goldscore.Internal.Torsion>
-7.0389

> <Gold.Goldscore.External.Vdw>
62.4908

> <Gold.Goldscore.Internal.HBond>
0.0000

> <Gold.Goldscore.External.HBond>
1.0257

> <Gold.Goldscore.Internal.Correction>
-8.8149

> <Gold.Goldscore.Hbonds>
donor molecule, donor type, donor heavy atom, donor atom, acceptor molecule, acceptor atom, score
      L1  H    24    47       P1  2185  0.17

> <Gold.Goldscore.Internal.Vdw.Weighted>
-2.5329

> <Gold.Goldscore.Internal.Torsion.Weighted>
-7.0389

> <Gold.Goldscore.External.Vdw.Weighted>
85.9249

> <Gold.Goldscore.Internal.HBond.Weighted>
0.0000

> <Gold.Goldscore.External.HBond.Weighted>
1.0257

> <Gold.Goldscore.Internal.Correction.Weighted>
-8.8149

> <Gold.Protein.RotatedTorsions>
[ 3781 1176 1175 1172 ] final  117.39 input   60.00 | X-H torsion
[ 3847 1247 1246 1244 ] final    6.06 input   60.00 | X-H torsion
[ 4507 1931 1930 1928 ] final -133.21 input   60.00 | X-H torsion
[ 3677 1070 1069 1066 ] final  107.97 input   60.00 | X-H torsion
[ 3525  925  924  922 ] final   27.47 input   59.99 | X-H torsion
[ 4531 1957 1955 1953 ] final -142.60 input   60.00 | X-H torsion

> <Gold.Protein.ActiveResidues>
 PHE267  PRO268  MET310  ASP335  TRP336  MET339  TYR343  THR360  PRO361  ILE363 
 PRO371  SER374  ILE375  ASN378  PHE381  TYR383  GLN384  PHE387  LEU408  LEU417 
 MET419  LEU428  TYR466  MET469  ASN472  ASP496  VAL498  LEU499  MET503  HIS524 
 TRP525 

> <Gold.Protein.RotatedAtoms>
   -3.2802  -29.6574  -30.7668 H   0  0  0  0  0  0  0  0  0  0  0  0  # atno 3525 bound_to 925 
  -11.7504  -22.1783  -30.5119 H   0  0  0  0  0  0  0  0  0  0  0  0  # atno 3677 bound_to 1070
   -9.8752  -37.1064  -32.3715 H   0  0  0  0  0  0  0  0  0  0  0  0  # atno 3781 bound_to 1176
  -15.6307  -28.7775  -37.0632 H   0  0  0  0  0  0  0  0  0  0  0  0  # atno 3847 bound_to 1247
  -13.3704  -24.3113  -40.4799 H   0  0  0  0  0  0  0  0  0  0  0  0  # atno 4507 bound_to 1931
   -1.2630  -33.2121  -37.0044 H   0  0  0  0  0  0  0  0  0  0  0  0  # atno 4531 bound_to 1957
  -10.7964  -37.2173  -33.7083 LP  0  0  0  0  0  0  0  0  0  0  0  0  # atno 5205 bound_to 1176
   -9.4402  -36.3078  -33.7209 LP  0  0  0  0  0  0  0  0  0  0  0  0  # atno 5206 bound_to 1176
  -15.6279  -27.2571  -37.6432 LP  0  0  0  0  0  0  0  0  0  0  0  0  # atno 5215 bound_to 1247
  -14.3027  -28.1976  -37.8036 LP  0  0  0  0  0  0  0  0  0  0  0  0  # atno 5216 bound_to 1247
  -12.4288  -24.0544  -39.1778 LP  0  0  0  0  0  0  0  0  0  0  0  0  # atno 5217 bound_to 1931
  -13.3934  -25.3703  -39.2446 LP  0  0  0  0  0  0  0  0  0  0  0  0  # atno 5218 bound_to 1931
  -12.7828  -23.4198  -30.7143 LP  0  0  0  0  0  0  0  0  0  0  0  0  # atno 5224 bound_to 1070
  -11.3223  -23.4412  -31.4445 LP  0  0  0  0  0  0  0  0  0  0  0  0  # atno 5225 bound_to 1070

$$$$
A_41|SEH_inhibs_minimized|sdf|29|dock10
  -GOLD-   41821 9513D 1   1.00000     0.00000

 54 56  0  0  0  0  0  0  0  0  1 V2000
   -9.6714  -25.7765  -34.6608 C   0  0  0  0  0  0  0  0  0  0  0  0
  -10.3563  -27.5992  -36.0911 C   0  0  0  0  0  0  0  0  0  0  0  0
  -17.6912  -23.0893  -39.3691 C   0  0  0  0  0  0  0  0  0  0  0  0
  -18.2604  -24.9035  -37.8785 C   0  0  0  0  0  0  0  0  0  0  0  0
  -10.7220  -24.9992  -35.1481 C   0  0  0  0  0  0  0  0  0  0  0  0
  -11.4069  -26.8220  -36.5784 C   0  0  0  0  0  0  0  0  0  0  0  0
  -16.3800  -23.1101  -38.8940 C   0  0  0  0  0  0  0  0  0  0  0  0
  -16.9492  -24.9245  -37.4033 C   0  0  0  0  0  0  0  0  0  0  0  0
   -9.4886  -27.0766  -35.1321 C   0  0  0  0  0  0  0  0  0  0  0  0
  -18.6314  -23.9860  -38.8614 C   0  0  0  0  0  0  0  0  0  0  0  0
  -11.5898  -25.5220  -36.1069 C   0  0  0  0  0  0  0  0  0  0  0  0
  -16.0090  -24.0278  -37.9110 C   0  0  0  0  0  0  0  0  0  0  0  0
   -8.3689  -27.9032  -34.6127 C   0  0  0  0  0  0  0  0  0  0  0  0
  -13.9319  -25.1586  -37.0024 C   0  0  0  0  0  0  0  0  0  0  0  0
   -4.5306  -29.8317  -33.7263 C   0  0  0  0  0  0  0  0  0  0  0  0
   -4.6107  -31.8195  -35.0831 C   0  0  0  0  0  0  0  0  0  0  0  0
   -3.2902  -30.3888  -33.0337 C   0  0  0  0  0  0  0  0  0  0  0  0
   -3.3691  -32.3302  -34.3577 C   0  0  0  0  0  0  0  0  0  0  0  0
   -6.5685  -30.4256  -34.8729 C   0  0  0  0  0  0  0  0  0  0  0  0
   -7.6806  -30.1675  -33.8670 C   0  0  0  0  0  0  0  0  0  0  0  0
  -20.0332  -23.9638  -39.3704 C   0  0  0  0  0  0  0  0  0  0  0  0
   -5.3790  -30.9364  -34.1948 N   0  0  0  0  0  0  0  0  0  0  0  0
  -12.6400  -24.7444  -36.5955 N   0  0  0  0  0  0  0  0  0  0  0  0
  -14.6790  -24.0490  -37.4287 N   0  0  0  0  0  0  0  0  0  0  0  0
   -8.6520  -29.2458  -34.3901 N   0  0  0  0  0  0  0  0  0  0  0  0
   -7.2837  -27.3725  -34.3914 O   0  0  0  0  0  0  0  0  0  0  0  0
  -14.3319  -26.3182  -36.9828 O   0  0  0  0  0  0  0  0  0  0  0  0
   -2.5615  -31.2355  -33.9234 O   0  0  0  0  0  0  0  0  0  0  0  0
  -20.6902  -25.1397  -39.1506 F   0  0  0  0  0  0  0  0  0  0  0  0
  -20.8090  -22.9978  -38.7954 F   0  0  0  0  0  0  0  0  0  0  0  0
  -20.1234  -23.7395  -40.7147 F   0  0  0  0  0  0  0  0  0  0  0  0
   -9.0012  -25.3584  -33.9140 H   0  0  0  0  0  0  0  0  0  0  0  0
  -10.2228  -28.6108  -36.4660 H   0  0  0  0  0  0  0  0  0  0  0  0
  -17.9713  -22.3709  -40.1351 H   0  0  0  0  0  0  0  0  0  0  0  0
  -18.9862  -25.6061  -37.4778 H   0  0  0  0  0  0  0  0  0  0  0  0
  -10.8542  -23.9873  -34.7738 H   0  0  0  0  0  0  0  0  0  0  0  0
  -12.0767  -27.2400  -37.3258 H   0  0  0  0  0  0  0  0  0  0  0  0
  -15.6559  -22.4065  -39.2968 H   0  0  0  0  0  0  0  0  0  0  0  0
  -16.6712  -25.6438  -36.6369 H   0  0  0  0  0  0  0  0  0  0  0  0
   -5.0821  -29.2029  -33.0180 H   0  0  0  0  0  0  0  0  0  0  0  0
   -4.2240  -29.2029  -34.5724 H   0  0  0  0  0  0  0  0  0  0  0  0
   -4.3074  -31.2778  -35.9886 H   0  0  0  0  0  0  0  0  0  0  0  0
   -5.2214  -32.6768  -35.3883 H   0  0  0  0  0  0  0  0  0  0  0  0
   -2.6289  -29.5678  -32.7384 H   0  0  0  0  0  0  0  0  0  0  0  0
   -3.5507  -30.9481  -32.1269 H   0  0  0  0  0  0  0  0  0  0  0  0
   -3.6316  -32.9558  -33.4957 H   0  0  0  0  0  0  0  0  0  0  0  0
   -2.7648  -32.9401  -35.0368 H   0  0  0  0  0  0  0  0  0  0  0  0
   -6.3141  -29.4993  -35.4003 H   0  0  0  0  0  0  0  0  0  0  0  0
   -6.8996  -31.1475  -35.6284 H   0  0  0  0  0  0  0  0  0  0  0  0
   -8.2116  -31.0915  -33.6150 H   0  0  0  0  0  0  0  0  0  0  0  0
   -7.2858  -29.7343  -32.9419 H   0  0  0  0  0  0  0  0  0  0  0  0
  -12.4514  -23.7390  -36.6699 H   0  0  0  0  0  0  0  0  0  0  0  0
  -14.2125  -23.1462  -37.3891 H   0  0  0  0  0  0  0  0  0  0  0  0
   -9.5967  -29.5947  -34.5405 H   0  0  0  0  0  0  0  0  0  0  0  0
  1  5  2  0  0  0  0
  1  9  1  0  0  0  0
  2  6  1  0  0  0  0
  2  9  2  0  0  0  0
  3  7  1  0  0  0  0
  3 10  2  0  0  0  0
  4  8  2  0  0  0  0
  4 10  1  0  0  0  0
  5 11  1  0  0  0  0
  6 11  2  0  0  0  0
  7 12  2  0  0  0  0
  8 12  1  0  0  0  0
  9 13  1  0  0  0  0
 10 21  1  0  0  0  0
 11 23  1  0  0  0  0
 12 24  1  0  0  0  0
 13 25  1  0  0  0  0
 13 26  2  0  0  0  0
 14 23  1  0  0  0  0
 14 24  1  0  0  0  0
 14 27  2  0  0  0  0
 15 17  1  0  0  0  0
 15 22  1  0  0  0  0
 16 18  1  0  0  0  0
 16 22  1  0  0  0  0
 17 28  1  0  0  0  0
 18 28  1  0  0  0  0
 19 20  1  0  0  0  0
 19 22  1  0  0  0  0
 20 25  1  0  0  0  0
 21 29  1  0  0  0  0
 21 30  1  0  0  0  0
 21 31  1  0  0  0  0
  1 32  1  0  0  0  0
  2 33  1  0  0  0  0
  3 34  1  0  0  0  0
  4 35  1  0  0  0  0
  5 36  1  0  0  0  0
  6 37  1  0  0  0  0
  7 38  1  0  0  0  0
  8 39  1  0  0  0  0
 15 40  1  0  0  0  0
 15 41  1  0  0  0  0
 16 42  1  0  0  0  0
 16 43  1  0  0  0  0
 17 44  1  0  0  0  0
 17 45  1  0  0  0  0
 18 46  1  0  0  0  0
 18 47  1  0  0  0  0
 19 48  1  0  0  0  0
 19 49  1  0  0  0  0
 20 50  1  0  0  0  0
 20 51  1  0  0  0  0
 23 52  1  0  0  0  0
 24 53  1  0  0  0  0
 25 54  1  0  0  0  0
M  END
> <Name>
A_41

> <SourceTag>
A_41

> <Gold.Version>
5.2

> <Gold.Id.Protein>
6HGV|6HGV_protein|mol2

> <Gold.Goldscore.Fitness>
80.7078

> <Gold.Goldscore.Internal.Vdw>
-4.1760

> <Gold.Goldscore.Internal.Torsion>
-8.7654

> <Gold.Goldscore.External.Vdw>
57.4059

> <Gold.Goldscore.Internal.HBond>
0.0000

> <Gold.Goldscore.External.HBond>
3.6844

> <Gold.Goldscore.Internal.Correction>
-11.0317

> <Gold.Goldscore.Hbonds>
donor molecule, donor type, donor heavy atom, donor atom, acceptor molecule, acceptor atom, score
      P1  H  1247  3847       L1    27  0.13
      L1  H    23    52       P1   854  0.41
      L1  H    24    53       P1   854  0.16

> <Gold.Goldscore.Internal.Vdw.Weighted>
-4.1760

> <Gold.Goldscore.Internal.Torsion.Weighted>
-8.7654

> <Gold.Goldscore.External.Vdw.Weighted>
78.9331

> <Gold.Goldscore.Internal.HBond.Weighted>
0.0000

> <Gold.Goldscore.External.HBond.Weighted>
3.6844

> <Gold.Goldscore.Internal.Correction.Weighted>
-11.0317

> <Gold.Protein.RotatedTorsions>
[ 3781 1176 1175 1172 ] final   80.55 input   60.00 | X-H torsion
[ 3847 1247 1246 1244 ] final -170.42 input   60.00 | X-H torsion
[ 4507 1931 1930 1928 ] final  -64.36 input   60.00 | X-H torsion
[ 3677 1070 1069 1066 ] final -111.54 input   60.00 | X-H torsion
[ 3525  925  924  922 ] final  -19.15 input   59.99 | X-H torsion
[ 4531 1957 1955 1953 ] final -112.11 input   60.00 | X-H torsion

> <Gold.Protein.ActiveResidues>
 PHE267  PRO268  MET310  ASP335  TRP336  MET339  TYR343  THR360  PRO361  ILE363 
 PRO371  SER374  ILE375  ASN378  PHE381  TYR383  GLN384  PHE387  LEU408  LEU417 
 MET419  LEU428  TYR466  MET469  ASN472  ASP496  VAL498  LEU499  MET503  HIS524 
 TRP525 

> <Gold.Protein.RotatedAtoms>
   -3.7299  -29.5136  -30.1958 H   0  0  0  0  0  0  0  0  0  0  0  0  # atno 3525 bound_to 925 
  -11.5726  -23.6628  -31.4447 H   0  0  0  0  0  0  0  0  0  0  0  0  # atno 3677 bound_to 1070
  -10.3736  -37.3737  -32.5456 H   0  0  0  0  0  0  0  0  0  0  0  0  # atno 3781 bound_to 1176
  -14.7940  -27.3499  -37.9377 H   0  0  0  0  0  0  0  0  0  0  0  0  # atno 3847 bound_to 1247
  -13.6902  -25.1859  -39.9767 H   0  0  0  0  0  0  0  0  0  0  0  0  # atno 4507 bound_to 1931
   -1.3479  -32.7276  -36.9798 H   0  0  0  0  0  0  0  0  0  0  0  0  # atno 4531 bound_to 1957
  -10.4942  -36.8729  -34.0893 LP  0  0  0  0  0  0  0  0  0  0  0  0  # atno 5205 bound_to 1176
   -9.2406  -36.3830  -33.1645 LP  0  0  0  0  0  0  0  0  0  0  0  0  # atno 5206 bound_to 1176
  -14.7016  -28.8783  -37.3866 LP  0  0  0  0  0  0  0  0  0  0  0  0  # atno 5215 bound_to 1247
  -16.0716  -28.0141  -37.1795 LP  0  0  0  0  0  0  0  0  0  0  0  0  # atno 5216 bound_to 1247
  -12.8255  -23.8169  -40.1383 LP  0  0  0  0  0  0  0  0  0  0  0  0  # atno 5217 bound_to 1931
  -12.6747  -24.7270  -38.7908 LP  0  0  0  0  0  0  0  0  0  0  0  0  # atno 5218 bound_to 1931
  -11.4675  -22.2288  -30.6826 LP  0  0  0  0  0  0  0  0  0  0  0  0  # atno 5224 bound_to 1070
  -12.8166  -23.1373  -30.5368 LP  0  0  0  0  0  0  0  0  0  0  0  0  # atno 5225 bound_to 1070

$$$$
A_117|SEH_inhibs_minimized|sdf|10|dock4
  -GOLD-   41821 9103D 1   1.00000     0.00000

 69 72  0  0  0  0  0  0  0  0  1 V2000
   -8.9742  -29.0344  -33.9663 C   0  0  0  0  0  0  0  0  0  0  0  0
  -11.9209  -28.0243  -34.8437 C   0  0  0  0  0  0  0  0  0  0  0  0
  -11.0197  -25.9009  -33.8053 C   0  0  0  0  0  0  0  0  0  0  0  0
  -11.9104  -27.3550  -36.2211 C   0  0  0  0  0  0  0  0  0  0  0  0
  -11.0070  -25.2325  -35.1830 C   0  0  0  0  0  0  0  0  0  0  0  0
   -6.4744  -33.0436  -33.2116 C   0  0  0  0  0  0  0  0  0  0  0  0
   -4.4119  -31.6177  -33.2516 C   0  0  0  0  0  0  0  0  0  0  0  0
   -5.3144  -32.5769  -35.3857 C   0  0  0  0  0  0  0  0  0  0  0  0
   -6.6440  -30.5808  -32.7720 C   0  0  0  0  0  0  0  0  0  0  0  0
   -7.5474  -31.5412  -34.9083 C   0  0  0  0  0  0  0  0  0  0  0  0
   -5.4816  -30.1131  -34.9490 C   0  0  0  0  0  0  0  0  0  0  0  0
   -5.7742  -31.8336  -32.5707 C   0  0  0  0  0  0  0  0  0  0  0  0
   -6.6813  -32.7979  -34.7157 C   0  0  0  0  0  0  0  0  0  0  0  0
   -4.6077  -31.3644  -34.7561 C   0  0  0  0  0  0  0  0  0  0  0  0
  -10.8807  -27.4242  -33.8923 C   0  0  2  0  0  0  0  0  0  0  0  0
  -12.0481  -25.8361  -36.1261 C   0  0  2  0  0  0  0  0  0  0  0  0
   -6.8581  -30.3107  -34.2780 C   0  0  0  0  0  0  0  0  0  0  0  0
  -22.3805  -23.4751  -37.6477 C   0  0  0  0  0  0  0  0  0  0  0  0
  -20.9799  -23.4774  -38.2221 C   0  0  0  0  0  0  0  0  0  0  0  0
  -14.2572  -25.3209  -36.7403 C   0  0  0  0  0  0  0  0  0  0  0  0
  -15.6790  -25.3433  -36.2133 C   0  0  0  0  0  0  0  0  0  0  0  0
  -18.7754  -24.1698  -37.7939 C   0  0  0  0  0  0  0  0  0  0  0  0
  -17.9154  -24.9546  -36.8220 C   0  0  0  0  0  0  0  0  0  0  0  0
   -9.5406  -27.8025  -34.2825 N   0  0  0  0  0  0  0  0  0  0  0  0
   -7.6785  -29.1339  -34.4632 N   0  0  0  0  0  0  0  0  0  0  0  0
   -9.5445  -29.9205  -33.3313 O   0  0  0  0  0  0  0  0  0  0  0  0
  -13.3596  -25.5245  -35.6598 O   0  0  0  0  0  0  0  0  0  0  0  0
  -20.1317  -24.2349  -37.3704 O   0  0  0  0  0  0  0  0  0  0  0  0
  -16.5556  -24.8554  -37.2217 O   0  0  0  0  0  0  0  0  0  0  0  0
  -12.9178  -27.9120  -34.3989 H   0  0  0  0  0  0  0  0  0  0  0  0
  -11.7509  -29.1010  -34.9651 H   0  0  0  0  0  0  0  0  0  0  0  0
  -10.2141  -25.4786  -33.1925 H   0  0  0  0  0  0  0  0  0  0  0  0
  -11.9616  -25.6567  -33.2980 H   0  0  0  0  0  0  0  0  0  0  0  0
  -10.9782  -27.6053  -36.7415 H   0  0  0  0  0  0  0  0  0  0  0  0
  -12.7358  -27.7669  -36.8138 H   0  0  0  0  0  0  0  0  0  0  0  0
  -11.1979  -24.1608  -35.0514 H   0  0  0  0  0  0  0  0  0  0  0  0
  -10.0100  -25.3328  -35.6286 H   0  0  0  0  0  0  0  0  0  0  0  0
   -5.8728  -33.9482  -33.0594 H   0  0  0  0  0  0  0  0  0  0  0  0
   -7.4413  -33.2187  -32.7240 H   0  0  0  0  0  0  0  0  0  0  0  0
   -3.8944  -30.7664  -32.7926 H   0  0  0  0  0  0  0  0  0  0  0  0
   -3.7743  -32.4973  -33.1001 H   0  0  0  0  0  0  0  0  0  0  0  0
   -4.6926  -33.4732  -35.2716 H   0  0  0  0  0  0  0  0  0  0  0  0
   -5.4467  -32.4160  -36.4626 H   0  0  0  0  0  0  0  0  0  0  0  0
   -7.6102  -30.7143  -32.2679 H   0  0  0  0  0  0  0  0  0  0  0  0
   -6.1660  -29.7146  -32.2954 H   0  0  0  0  0  0  0  0  0  0  0  0
   -7.7238  -31.3706  -35.9785 H   0  0  0  0  0  0  0  0  0  0  0  0
   -8.5356  -31.6966  -34.4552 H   0  0  0  0  0  0  0  0  0  0  0  0
   -4.9752  -29.2357  -34.5257 H   0  0  0  0  0  0  0  0  0  0  0  0
   -5.6062  -29.9088  -36.0206 H   0  0  0  0  0  0  0  0  0  0  0  0
   -5.6282  -32.0148  -31.5001 H   0  0  0  0  0  0  0  0  0  0  0  0
   -7.1792  -33.6633  -35.1671 H   0  0  0  0  0  0  0  0  0  0  0  0
   -3.6342  -31.2133  -35.2357 H   0  0  0  0  0  0  0  0  0  0  0  0
  -11.0239  -27.8518  -32.8935 H   0  0  0  0  0  0  0  0  0  0  0  0
  -11.9449  -25.3978  -37.1248 H   0  0  0  0  0  0  0  0  0  0  0  0
  -23.0513  -22.8631  -38.2573 H   0  0  0  0  0  0  0  0  0  0  0  0
  -22.7790  -24.4937  -37.5975 H   0  0  0  0  0  0  0  0  0  0  0  0
  -22.3773  -23.0838  -36.6249 H   0  0  0  0  0  0  0  0  0  0  0  0
  -20.5912  -22.4570  -38.2896 H   0  0  0  0  0  0  0  0  0  0  0  0
  -20.9741  -23.9299  -39.2182 H   0  0  0  0  0  0  0  0  0  0  0  0
  -14.0225  -24.3566  -37.2012 H   0  0  0  0  0  0  0  0  0  0  0  0
  -14.1058  -26.1239  -37.4676 H   0  0  0  0  0  0  0  0  0  0  0  0
  -15.7834  -24.7029  -35.3318 H   0  0  0  0  0  0  0  0  0  0  0  0
  -15.9788  -26.3654  -35.9638 H   0  0  0  0  0  0  0  0  0  0  0  0
  -18.7129  -24.5887  -38.8029 H   0  0  0  0  0  0  0  0  0  0  0  0
  -18.4719  -23.1191  -37.8113 H   0  0  0  0  0  0  0  0  0  0  0  0
  -18.1925  -26.0135  -36.8159 H   0  0  0  0  0  0  0  0  0  0  0  0
  -18.0066  -24.5439  -35.8122 H   0  0  0  0  0  0  0  0  0  0  0  0
   -8.9859  -27.1376  -34.8125 H   0  0  0  0  0  0  0  0  0  0  0  0
   -7.3043  -28.3709  -35.0164 H   0  0  0  0  0  0  0  0  0  0  0  0
  1 24  1  0  0  0  0
  1 25  1  0  0  0  0
  1 26  2  0  0  0  0
  2  4  1  0  0  0  0
  2 15  1  0  0  0  0
  3  5  1  0  0  0  0
  3 15  1  0  0  0  0
  4 16  1  0  0  0  0
  5 16  1  0  0  0  0
  6 12  1  0  0  0  0
  6 13  1  0  0  0  0
  7 12  1  0  0  0  0
  7 14  1  0  0  0  0
  8 13  1  0  0  0  0
  8 14  1  0  0  0  0
  9 12  1  0  0  0  0
  9 17  1  0  0  0  0
 10 13  1  0  0  0  0
 10 17  1  0  0  0  0
 11 14  1  0  0  0  0
 11 17  1  0  0  0  0
 15 24  1  0  0  0  0
 16 27  1  0  0  0  0
 17 25  1  0  0  0  0
 18 19  1  0  0  0  0
 19 28  1  0  0  0  0
 20 21  1  0  0  0  0
 20 27  1  0  0  0  0
 21 29  1  0  0  0  0
 22 23  1  0  0  0  0
 22 28  1  0  0  0  0
 23 29  1  0  0  0  0
  2 30  1  0  0  0  0
  2 31  1  0  0  0  0
  3 32  1  0  0  0  0
  3 33  1  0  0  0  0
  4 34  1  0  0  0  0
  4 35  1  0  0  0  0
  5 36  1  0  0  0  0
  5 37  1  0  0  0  0
  6 38  1  0  0  0  0
  6 39  1  0  0  0  0
  7 40  1  0  0  0  0
  7 41  1  0  0  0  0
  8 42  1  0  0  0  0
  8 43  1  0  0  0  0
  9 44  1  0  0  0  0
  9 45  1  0  0  0  0
 10 46  1  0  0  0  0
 10 47  1  0  0  0  0
 11 48  1  0  0  0  0
 11 49  1  0  0  0  0
 12 50  1  0  0  0  0
 13 51  1  0  0  0  0
 14 52  1  0  0  0  0
 15 53  1  0  0  0  0
 16 54  1  0  0  0  0
 18 55  1  0  0  0  0
 18 56  1  0  0  0  0
 18 57  1  0  0  0  0
 19 58  1  0  0  0  0
 19 59  1  0  0  0  0
 20 60  1  0  0  0  0
 20 61  1  0  0  0  0
 21 62  1  0  0  0  0
 21 63  1  0  0  0  0
 22 64  1  0  0  0  0
 22 65  1  0  0  0  0
 23 66  1  0  0  0  0
 23 67  1  0  0  0  0
 24 68  1  0  0  0  0
 25 69  1  0  0  0  0
M  END
> <SourceTag>
A_117

> <Gold.Version>
5.2

> <Gold.Id.Protein>
6HGV|6HGV_protein|mol2

> <Gold.Goldscore.Fitness>
70.7408

> <Gold.Goldscore.Internal.Vdw>
-10.5024

> <Gold.Goldscore.Internal.Torsion>
-4.5584

> <Gold.Goldscore.External.Vdw>
52.2661

> <Gold.Goldscore.Internal.HBond>
0.0000

> <Gold.Goldscore.External.HBond>
0.0000

> <Gold.Goldscore.Internal.Correction>
-13.9358

> <Gold.Goldscore.Internal.Vdw.Weighted>
-10.5024

> <Gold.Goldscore.Internal.Torsion.Weighted>
-4.5584

> <Gold.Goldscore.External.Vdw.Weighted>
71.8659

> <Gold.Goldscore.Internal.HBond.Weighted>
0.0000

> <Gold.Goldscore.External.HBond.Weighted>
0.0000

> <Gold.Goldscore.Internal.Correction.Weighted>
-13.9358

> <Gold.Protein.RotatedTorsions>
[ 3781 1176 1175 1172 ] final  -54.58 input   60.00 | X-H torsion
[ 3847 1247 1246 1244 ] final  -12.96 input   60.00 | X-H torsion
[ 4507 1931 1930 1928 ] final  106.97 input   60.00 | X-H torsion
[ 3677 1070 1069 1066 ] final  -68.52 input   60.00 | X-H torsion
[ 3525  925  924  922 ] final  -44.66 input   59.99 | X-H torsion
[ 4531 1957 1955 1953 ] final  -83.43 input   60.00 | X-H torsion

> <Gold.Protein.ActiveResidues>
 PHE267  PRO268  MET310  ASP335  TRP336  MET339  TYR343  THR360  PRO361  ILE363 
 PRO371  SER374  ILE375  ASN378  PHE381  TYR383  GLN384  PHE387  LEU408  LEU417 
 MET419  LEU428  TYR466  MET469  ASN472  ASP496  VAL498  LEU499  MET503  HIS524 
 TRP525 

> <Gold.Protein.RotatedAtoms>
   -3.7654  -29.5358  -29.7846 H   0  0  0  0  0  0  0  0  0  0  0  0  # atno 3525 bound_to 925 
  -12.2019  -23.8432  -31.2380 H   0  0  0  0  0  0  0  0  0  0  0  0  # atno 3677 bound_to 1070
  -10.3039  -36.7265  -34.1493 H   0  0  0  0  0  0  0  0  0  0  0  0  # atno 3781 bound_to 1176
  -15.8542  -28.5636  -37.0573 H   0  0  0  0  0  0  0  0  0  0  0  0  # atno 3847 bound_to 1247
  -12.4315  -24.0574  -39.1842 H   0  0  0  0  0  0  0  0  0  0  0  0  # atno 4507 bound_to 1931
   -1.6390  -32.3718  -36.9183 H   0  0  0  0  0  0  0  0  0  0  0  0  # atno 4531 bound_to 1957
   -9.2506  -36.4758  -32.9345 LP  0  0  0  0  0  0  0  0  0  0  0  0  # atno 5205 bound_to 1176
  -10.5543  -37.4318  -32.7043 LP  0  0  0  0  0  0  0  0  0  0  0  0  # atno 5206 bound_to 1176
  -15.3535  -27.1921  -37.7758 LP  0  0  0  0  0  0  0  0  0  0  0  0  # atno 5215 bound_to 1247
  -14.3520  -28.4781  -37.6769 LP  0  0  0  0  0  0  0  0  0  0  0  0  # atno 5216 bound_to 1247
  -13.3918  -25.3699  -39.2423 LP  0  0  0  0  0  0  0  0  0  0  0  0  # atno 5217 bound_to 1931
  -13.3760  -24.3105  -40.4849 LP  0  0  0  0  0  0  0  0  0  0  0  0  # atno 5218 bound_to 1931
  -11.1070  -22.6474  -31.0983 LP  0  0  0  0  0  0  0  0  0  0  0  0  # atno 5224 bound_to 1070
  -12.5433  -22.5371  -30.3293 LP  0  0  0  0  0  0  0  0  0  0  0  0  # atno 5225 bound_to 1070

$$$$
A_31|SEH_inhibs_minimized|sdf|25|dock3
  -GOLD-   41821 9423D 1   1.00000     0.00000

 32 34  0  0  0  0  0  0  0  0  1 V2000
  -17.8114  -23.8387  -39.6971 C   0  0  0  0  0  0  0  0  0  0  0  0
  -16.5904  -24.2078  -39.1151 C   0  0  0  0  0  0  0  0  0  0  0  0
  -19.0179  -23.9957  -39.0070 C   0  0  0  0  0  0  0  0  0  0  0  0
  -10.9084  -25.2980  -35.6757 C   0  0  0  0  0  0  0  0  0  0  0  0
  -12.0764  -27.2979  -34.9877 C   0  0  0  0  0  0  0  0  0  0  0  0
  -12.0325  -24.8877  -36.3921 C   0  0  0  0  0  0  0  0  0  0  0  0
  -13.2007  -26.8876  -35.7041 C   0  0  0  0  0  0  0  0  0  0  0  0
  -16.6094  -24.7403  -37.8176 C   0  0  0  0  0  0  0  0  0  0  0  0
  -10.9302  -26.5030  -34.9734 C   0  0  0  0  0  0  0  0  0  0  0  0
  -19.0517  -24.5251  -37.7128 C   0  0  0  0  0  0  0  0  0  0  0  0
  -13.1788  -25.6826  -36.4063 C   0  0  0  0  0  0  0  0  0  0  0  0
  -17.8222  -24.8803  -37.1660 C   0  0  0  0  0  0  0  0  0  0  0  0
  -15.6741  -25.2246  -36.8826 C   0  0  0  0  0  0  0  0  0  0  0  0
   -9.7282  -26.9422  -34.2076 C   0  0  0  0  0  0  0  0  0  0  0  0
  -20.3452  -24.6851  -36.9929 C   0  0  0  0  0  0  0  0  0  0  0  0
  -16.2517  -25.6307  -35.7480 N   0  0  0  0  0  0  0  0  0  0  0  0
  -14.3429  -25.2583  -37.1486 N   0  0  0  0  0  0  0  0  0  0  0  0
  -17.6115  -25.4108  -35.9303 O   0  0  0  0  0  0  0  0  0  0  0  0
   -8.9703  -27.8465  -34.8936 F   0  0  0  0  0  0  0  0  0  0  0  0
   -8.8795  -25.9208  -33.8879 F   0  0  0  0  0  0  0  0  0  0  0  0
  -10.0269  -27.5427  -33.0177 F   0  0  0  0  0  0  0  0  0  0  0  0
  -21.1488  -25.6346  -37.5571 F   0  0  0  0  0  0  0  0  0  0  0  0
  -20.2045  -25.0578  -35.6854 F   0  0  0  0  0  0  0  0  0  0  0  0
  -21.0987  -23.5452  -36.9568 F   0  0  0  0  0  0  0  0  0  0  0  0
  -17.8194  -23.4237  -40.7018 H   0  0  0  0  0  0  0  0  0  0  0  0
  -15.6621  -24.0801  -39.6630 H   0  0  0  0  0  0  0  0  0  0  0  0
  -19.9439  -23.6969  -39.4941 H   0  0  0  0  0  0  0  0  0  0  0  0
  -10.0194  -24.6730  -35.6719 H   0  0  0  0  0  0  0  0  0  0  0  0
  -12.1020  -28.2385  -34.4445 H   0  0  0  0  0  0  0  0  0  0  0  0
  -12.0054  -23.9466  -36.9354 H   0  0  0  0  0  0  0  0  0  0  0  0
  -14.0885  -27.5149  -35.7082 H   0  0  0  0  0  0  0  0  0  0  0  0
  -14.0522  -24.9114  -38.0827 H   0  0  0  0  0  0  0  0  0  0  0  0
  1  2  1  0  0  0  0
  1  3  2  0  0  0  0
  2  8  2  0  0  0  0
  3 10  1  0  0  0  0
  4  6  1  0  0  0  0
  4  9  2  0  0  0  0
  5  7  2  0  0  0  0
  5  9  1  0  0  0  0
  6 11  2  0  0  0  0
  7 11  1  0  0  0  0
  8 12  1  0  0  0  0
  8 13  1  0  0  0  0
  9 14  1  0  0  0  0
 10 12  2  0  0  0  0
 10 15  1  0  0  0  0
 11 17  1  0  0  0  0
 12 18  1  0  0  0  0
 13 16  2  0  0  0  0
 13 17  1  0  0  0  0
 14 19  1  0  0  0  0
 14 20  1  0  0  0  0
 14 21  1  0  0  0  0
 15 22  1  0  0  0  0
 15 23  1  0  0  0  0
 15 24  1  0  0  0  0
 16 18  1  0  0  0  0
  1 25  1  0  0  0  0
  2 26  1  0  0  0  0
  3 27  1  0  0  0  0
  4 28  1  0  0  0  0
  5 29  1  0  0  0  0
  6 30  1  0  0  0  0
  7 31  1  0  0  0  0
 17 32  1  0  0  0  0
M  END
> <Name>
A_31

> <SourceTag>
A_31

> <Gold.Version>
5.2

> <Gold.Id.Protein>
6HGV|6HGV_protein|mol2

> <Gold.Goldscore.Fitness>
53.5199

> <Gold.Goldscore.Internal.Vdw>
1.3452

> <Gold.Goldscore.Internal.Torsion>
-3.9005

> <Gold.Goldscore.External.Vdw>
38.6323

> <Gold.Goldscore.Internal.HBond>
0.0000

> <Gold.Goldscore.External.HBond>
1.5930

> <Gold.Goldscore.Internal.Correction>
-1.3628

> <Gold.Goldscore.Hbonds>
donor molecule, donor type, donor heavy atom, donor atom, acceptor molecule, acceptor atom, score
      P1  H  1247  3847       L1    18  0.21
      L1  H    17    32       P1  1931  0.59

> <Gold.Goldscore.Internal.Vdw.Weighted>
1.3452

> <Gold.Goldscore.Internal.Torsion.Weighted>
-3.9005

> <Gold.Goldscore.External.Vdw.Weighted>
53.1194

> <Gold.Goldscore.Internal.HBond.Weighted>
0.0000

> <Gold.Goldscore.External.HBond.Weighted>
1.5930

> <Gold.Goldscore.Internal.Correction.Weighted>
-1.3628

> <Gold.Protein.RotatedTorsions>
[ 3781 1176 1175 1172 ] final  -68.15 input   60.00 | X-H torsion
[ 3847 1247 1246 1244 ] final  -79.15 input   60.00 | X-H torsion
[ 4507 1931 1930 1928 ] final  156.27 input   60.00 | X-H torsion
[ 3677 1070 1069 1066 ] final -104.49 input   60.00 | X-H torsion
[ 3525  925  924  922 ] final   20.15 input   59.99 | X-H torsion
[ 4531 1957 1955 1953 ] final  139.02 input   60.00 | X-H torsion

> <Gold.Protein.ActiveResidues>
 PHE267  PRO268  MET310  ASP335  TRP336  MET339  TYR343  THR360  PRO361  ILE363 
 PRO371  SER374  ILE375  ASN378  PHE381  TYR383  GLN384  PHE387  LEU408  LEU417 
 MET419  LEU428  TYR466  MET469  ASN472  ASP496  VAL498  LEU499  MET503  HIS524 
 TRP525 

> <Gold.Protein.RotatedAtoms>
   -3.3762  -29.6212  -30.7054 H   0  0  0  0  0  0  0  0  0  0  0  0  # atno 3525 bound_to 925 
  -11.6704  -23.7219  -31.4302 H   0  0  0  0  0  0  0  0  0  0  0  0  # atno 3677 bound_to 1070
  -10.1210  -36.6022  -34.1556 H   0  0  0  0  0  0  0  0  0  0  0  0  # atno 3781 bound_to 1176
  -15.9827  -27.6004  -37.3753 H   0  0  0  0  0  0  0  0  0  0  0  0  # atno 3847 bound_to 1247
  -12.6447  -23.7784  -39.8818 H   0  0  0  0  0  0  0  0  0  0  0  0  # atno 4507 bound_to 1931
   -2.0752  -34.0611  -36.8646 H   0  0  0  0  0  0  0  0  0  0  0  0  # atno 4531 bound_to 1957
   -9.3061  -36.5830  -32.7472 LP  0  0  0  0  0  0  0  0  0  0  0  0  # atno 5205 bound_to 1176
  -10.6830  -37.4499  -32.8853 LP  0  0  0  0  0  0  0  0  0  0  0  0  # atno 5206 bound_to 1176
  -14.4592  -27.6743  -37.9423 LP  0  0  0  0  0  0  0  0  0  0  0  0  # atno 5215 bound_to 1247
  -15.1170  -28.9658  -37.1901 LP  0  0  0  0  0  0  0  0  0  0  0  0  # atno 5216 bound_to 1247
  -12.8636  -24.9813  -38.8080 LP  0  0  0  0  0  0  0  0  0  0  0  0  # atno 5217 bound_to 1931
  -13.6895  -24.9801  -40.2167 LP  0  0  0  0  0  0  0  0  0  0  0  0  # atno 5218 bound_to 1931
  -11.3829  -22.2722  -30.7490 LP  0  0  0  0  0  0  0  0  0  0  0  0  # atno 5224 bound_to 1070
  -12.8027  -23.0344  -30.4850 LP  0  0  0  0  0  0  0  0  0  0  0  0  # atno 5225 bound_to 1070

$$$$
A_70|SEH_inhibs_minimized|sdf|44|dock10
  -GOLD-   4182110263D 1   1.00000     0.00000

 41 42  0  0  0  0  0  0  0  0  1 V2000
  -17.0611  -24.2156  -37.8064 C   0  0  0  0  0  0  0  0  0  0  0  0
  -16.0745  -24.7828  -39.9376 C   0  0  0  0  0  0  0  0  0  0  0  0
  -18.3488  -23.9743  -39.8364 C   0  0  0  0  0  0  0  0  0  0  0  0
  -15.9740  -24.6742  -38.5504 C   0  0  0  0  0  0  0  0  0  0  0  0
  -18.2485  -23.8657  -38.4494 C   0  0  0  0  0  0  0  0  0  0  0  0
  -17.2618  -24.4329  -40.5805 C   0  0  0  0  0  0  0  0  0  0  0  0
   -8.6840  -27.2818  -34.8625 C   0  0  0  0  0  0  0  0  0  0  0  0
  -14.6117  -25.5383  -36.6063 C   0  0  0  0  0  0  0  0  0  0  0  0
  -12.2636  -27.7198  -35.2427 C   0  0  0  0  0  0  0  0  0  0  0  0
  -11.6947  -25.3796  -34.4753 C   0  0  0  0  0  0  0  0  0  0  0  0
  -10.9195  -27.7767  -35.9696 C   0  0  0  0  0  0  0  0  0  0  0  0
  -10.3596  -25.4953  -35.2107 C   0  0  0  0  0  0  0  0  0  0  0  0
  -12.7757  -26.2839  -35.0802 C   0  0  0  0  0  0  0  0  0  0  0  0
   -6.9110  -28.9739  -34.5473 C   0  0  0  0  0  0  0  0  0  0  0  0
   -8.3139  -28.7316  -35.0488 C   0  0  0  0  0  0  0  0  0  0  0  0
   -9.9418  -26.8936  -35.3231 N   0  0  0  0  0  0  0  0  0  0  0  0
  -14.7701  -25.0294  -37.8985 N   0  0  0  0  0  0  0  0  0  0  0  0
  -13.2580  -25.7601  -36.3372 N   0  0  0  0  0  0  0  0  0  0  0  0
   -7.8790  -26.5193  -34.3216 O   0  0  0  0  0  0  0  0  0  0  0  0
  -15.5061  -25.7702  -35.7964 O   0  0  0  0  0  0  0  0  0  0  0  0
  -19.5900  -23.3001  -37.5314 Cl  0  0  0  0  0  0  0  0  0  0  0  0
  -17.3862  -24.5679  -42.2917 Cl  0  0  0  0  0  0  0  0  0  0  0  0
  -16.9799  -24.1319  -36.7245 H   0  0  0  0  0  0  0  0  0  0  0  0
  -15.2247  -25.1411  -40.5154 H   0  0  0  0  0  0  0  0  0  0  0  0
  -19.2748  -23.7016  -40.3384 H   0  0  0  0  0  0  0  0  0  0  0  0
  -12.9972  -28.3336  -35.7787 H   0  0  0  0  0  0  0  0  0  0  0  0
  -12.1408  -28.1614  -34.2453 H   0  0  0  0  0  0  0  0  0  0  0  0
  -11.5421  -25.6737  -33.4287 H   0  0  0  0  0  0  0  0  0  0  0  0
  -12.0220  -24.3332  -34.4698 H   0  0  0  0  0  0  0  0  0  0  0  0
  -10.5746  -28.8115  -36.0054 H   0  0  0  0  0  0  0  0  0  0  0  0
  -11.0260  -27.4384  -37.0071 H   0  0  0  0  0  0  0  0  0  0  0  0
  -10.4418  -25.0956  -36.2283 H   0  0  0  0  0  0  0  0  0  0  0  0
   -9.6012  -24.9020  -34.6900 H   0  0  0  0  0  0  0  0  0  0  0  0
  -13.6496  -26.2916  -34.4131 H   0  0  0  0  0  0  0  0  0  0  0  0
   -6.5908  -29.9866  -34.8108 H   0  0  0  0  0  0  0  0  0  0  0  0
   -6.8538  -28.8670  -33.4587 H   0  0  0  0  0  0  0  0  0  0  0  0
   -6.2023  -28.2646  -34.9875 H   0  0  0  0  0  0  0  0  0  0  0  0
   -9.0389  -29.3321  -34.5012 H   0  0  0  0  0  0  0  0  0  0  0  0
   -8.3952  -28.9539  -36.1119 H   0  0  0  0  0  0  0  0  0  0  0  0
  -13.9161  -24.8987  -38.4350 H   0  0  0  0  0  0  0  0  0  0  0  0
  -12.5807  -25.5423  -37.0605 H   0  0  0  0  0  0  0  0  0  0  0  0
  1  4  2  0  0  0  0
  1  5  1  0  0  0  0
  2  4  1  0  0  0  0
  2  6  2  0  0  0  0
  3  5  2  0  0  0  0
  3  6  1  0  0  0  0
  4 17  1  0  0  0  0
  5 21  1  0  0  0  0
  6 22  1  0  0  0  0
  7 15  1  0  0  0  0
  7 16  1  0  0  0  0
  7 19  2  0  0  0  0
  8 17  1  0  0  0  0
  8 18  1  0  0  0  0
  8 20  2  0  0  0  0
  9 11  1  0  0  0  0
  9 13  1  0  0  0  0
 10 12  1  0  0  0  0
 10 13  1  0  0  0  0
 11 16  1  0  0  0  0
 12 16  1  0  0  0  0
 13 18  1  0  0  0  0
 14 15  1  0  0  0  0
  1 23  1  0  0  0  0
  2 24  1  0  0  0  0
  3 25  1  0  0  0  0
  9 26  1  0  0  0  0
  9 27  1  0  0  0  0
 10 28  1  0  0  0  0
 10 29  1  0  0  0  0
 11 30  1  0  0  0  0
 11 31  1  0  0  0  0
 12 32  1  0  0  0  0
 12 33  1  0  0  0  0
 13 34  1  0  0  0  0
 14 35  1  0  0  0  0
 14 36  1  0  0  0  0
 14 37  1  0  0  0  0
 15 38  1  0  0  0  0
 15 39  1  0  0  0  0
 17 40  1  0  0  0  0
 18 41  1  0  0  0  0
M  END
> <Name>
A_70

> <SourceTag>
A_70

> <Gold.Version>
5.2

> <Gold.Id.Protein>
6HGV|6HGV_protein|mol2

> <Gold.Goldscore.Fitness>
63.5843

> <Gold.Goldscore.Internal.Vdw>
-5.5068

> <Gold.Goldscore.Internal.Torsion>
-2.8804

> <Gold.Goldscore.External.Vdw>
45.6962

> <Gold.Goldscore.Internal.HBond>
0.0000

> <Gold.Goldscore.External.HBond>
1.7268

> <Gold.Goldscore.Internal.Correction>
-7.4125

> <Gold.Goldscore.Hbonds>
donor molecule, donor type, donor heavy atom, donor atom, acceptor molecule, acceptor atom, score
      L1  H    17    40       P1  1931  0.86

> <Gold.Goldscore.Internal.Vdw.Weighted>
-5.5068

> <Gold.Goldscore.Internal.Torsion.Weighted>
-2.8804

> <Gold.Goldscore.External.Vdw.Weighted>
62.8322

> <Gold.Goldscore.Internal.HBond.Weighted>
0.0000

> <Gold.Goldscore.External.HBond.Weighted>
1.7268

> <Gold.Goldscore.Internal.Correction.Weighted>
-7.4125

> <Gold.Protein.RotatedTorsions>
[ 3781 1176 1175 1172 ] final   75.01 input   60.00 | X-H torsion
[ 3847 1247 1246 1244 ] final  -40.96 input   60.00 | X-H torsion
[ 4507 1931 1930 1928 ] final -179.32 input   60.00 | X-H torsion
[ 3677 1070 1069 1066 ] final  -80.98 input   60.00 | X-H torsion
[ 3525  925  924  922 ] final  115.86 input   59.99 | X-H torsion
[ 4531 1957 1955 1953 ] final -104.18 input   60.00 | X-H torsion

> <Gold.Protein.ActiveResidues>
 PHE267  PRO268  MET310  ASP335  TRP336  MET339  TYR343  THR360  PRO361  ILE363 
 PRO371  SER374  ILE375  ASN378  PHE381  TYR383  GLN384  PHE387  LEU408  LEU417 
 MET419  LEU428  TYR466  MET469  ASN472  ASP496  VAL498  LEU499  MET503  HIS524 
 TRP525 

> <Gold.Protein.RotatedAtoms>
   -2.1477  -30.1856  -30.3899 H   0  0  0  0  0  0  0  0  0  0  0  0  # atno 3525 bound_to 925 
  -12.0183  -23.8372  -31.3249 H   0  0  0  0  0  0  0  0  0  0  0  0  # atno 3677 bound_to 1070
  -10.4414  -37.3985  -32.6002 H   0  0  0  0  0  0  0  0  0  0  0  0  # atno 3781 bound_to 1176
  -16.0459  -28.1609  -37.1361 H   0  0  0  0  0  0  0  0  0  0  0  0  # atno 3847 bound_to 1247
  -12.8779  -23.8497  -40.1937 H   0  0  0  0  0  0  0  0  0  0  0  0  # atno 4507 bound_to 1931
   -1.4102  -32.6150  -36.9661 H   0  0  0  0  0  0  0  0  0  0  0  0  # atno 4531 bound_to 1957
  -10.4287  -36.8176  -34.1202 LP  0  0  0  0  0  0  0  0  0  0  0  0  # atno 5205 bound_to 1176
   -9.2378  -36.4133  -33.0786 LP  0  0  0  0  0  0  0  0  0  0  0  0  # atno 5206 bound_to 1176
  -14.9259  -27.2719  -37.9130 LP  0  0  0  0  0  0  0  0  0  0  0  0  # atno 5215 bound_to 1247
  -14.5865  -28.8038  -37.4603 LP  0  0  0  0  0  0  0  0  0  0  0  0  # atno 5216 bound_to 1247
  -12.6320  -24.6568  -38.8023 LP  0  0  0  0  0  0  0  0  0  0  0  0  # atno 5217 bound_to 1931
  -13.6862  -25.2328  -39.9083 LP  0  0  0  0  0  0  0  0  0  0  0  0  # atno 5218 bound_to 1931
  -11.1691  -22.4927  -30.9797 LP  0  0  0  0  0  0  0  0  0  0  0  0  # atno 5224 bound_to 1070
  -12.6661  -22.6978  -30.3604 LP  0  0  0  0  0  0  0  0  0  0  0  0  # atno 5225 bound_to 1070

$$$$
A_95|SEH_inhibs_minimized|sdf|55|dock2
  -GOLD-   4182110443D 1   1.00000     0.00000

 41 43  0  0  0  0  0  0  0  0  1 V2000
  -19.8289  -23.7322  -39.8173 C   0  0  0  0  0  0  0  0  0  0  0  0
  -20.8100  -23.5991  -38.8394 C   0  0  0  0  0  0  0  0  0  0  0  0
  -18.5577  -24.1929  -39.4733 C   0  0  0  0  0  0  0  0  0  0  0  0
  -20.5237  -23.9260  -37.5136 C   0  0  0  0  0  0  0  0  0  0  0  0
  -16.9778  -24.9919  -37.7797 C   0  0  0  0  0  0  0  0  0  0  0  0
  -18.9438  -24.7248  -35.8198 C   0  0  0  0  0  0  0  0  0  0  0  0
  -18.2519  -24.5267  -38.1440 C   0  0  0  0  0  0  0  0  0  0  0  0
  -19.2496  -24.3911  -37.1494 C   0  0  0  0  0  0  0  0  0  0  0  0
  -16.6915  -25.3187  -36.4540 C   0  0  0  0  0  0  0  0  0  0  0  0
  -17.6726  -25.1854  -35.4759 C   0  0  0  0  0  0  0  0  0  0  0  0
  -14.1712  -25.3443  -36.6217 C   0  0  0  0  0  0  0  0  0  0  0  0
  -10.1712  -26.7273  -33.9808 C   0  0  0  0  0  0  0  0  0  0  0  0
  -10.9454  -25.4119  -33.9634 C   0  0  0  0  0  0  0  0  0  0  0  0
  -10.7844  -27.7365  -34.9478 C   0  0  0  0  0  0  0  0  0  0  0  0
  -11.0981  -24.8302  -35.3695 C   0  0  0  0  0  0  0  0  0  0  0  0
  -10.9371  -27.1494  -36.3517 C   0  0  0  0  0  0  0  0  0  0  0  0
  -11.7132  -25.8256  -36.3622 C   0  0  0  0  0  0  0  0  0  0  0  0
  -15.3988  -25.7853  -36.1197 N   0  0  0  0  0  0  0  0  0  0  0  0
  -13.1217  -26.0612  -36.0369 N   0  0  0  0  0  0  0  0  0  0  0  0
  -13.9962  -24.4588  -37.4554 O   0  0  0  0  0  0  0  0  0  0  0  0
  -17.4125  -25.5000  -34.1752 O   0  0  0  0  0  0  0  0  0  0  0  0
  -20.0527  -23.4778  -40.8492 H   0  0  0  0  0  0  0  0  0  0  0  0
  -21.7995  -23.2409  -39.1080 H   0  0  0  0  0  0  0  0  0  0  0  0
  -17.8058  -24.2883  -40.2542 H   0  0  0  0  0  0  0  0  0  0  0  0
  -21.3058  -23.8142  -36.7656 H   0  0  0  0  0  0  0  0  0  0  0  0
  -16.2028  -25.0995  -38.5371 H   0  0  0  0  0  0  0  0  0  0  0  0
  -19.7004  -24.6257  -35.0437 H   0  0  0  0  0  0  0  0  0  0  0  0
   -9.1276  -26.5370  -34.2593 H   0  0  0  0  0  0  0  0  0  0  0  0
  -10.1570  -27.1546  -32.9693 H   0  0  0  0  0  0  0  0  0  0  0  0
  -11.9353  -25.5722  -33.5226 H   0  0  0  0  0  0  0  0  0  0  0  0
  -10.4233  -24.6888  -33.3255 H   0  0  0  0  0  0  0  0  0  0  0  0
  -10.1508  -28.6302  -34.9941 H   0  0  0  0  0  0  0  0  0  0  0  0
  -11.7633  -28.0566  -34.5749 H   0  0  0  0  0  0  0  0  0  0  0  0
  -11.7197  -23.9190  -35.3215 H   0  0  0  0  0  0  0  0  0  0  0  0
  -10.1120  -24.4972  -35.7349 H   0  0  0  0  0  0  0  0  0  0  0  0
   -9.9380  -27.0015  -36.7953 H   0  0  0  0  0  0  0  0  0  0  0  0
  -11.4441  -27.8842  -37.0012 H   0  0  0  0  0  0  0  0  0  0  0  0
  -11.7022  -25.4011  -37.3629 H   0  0  0  0  0  0  0  0  0  0  0  0
  -15.3634  -26.5315  -35.4297 H   0  0  0  0  0  0  0  0  0  0  0  0
  -13.3470  -26.7788  -35.3546 H   0  0  0  0  0  0  0  0  0  0  0  0
  -18.2233  -25.4350  -33.6471 H   0  0  0  0  0  0  0  0  0  0  0  0
  1  2  1  0  0  0  0
  1  3  2  0  0  0  0
  2  4  2  0  0  0  0
  3  7  1  0  0  0  0
  4  8  1  0  0  0  0
  5  7  1  0  0  0  0
  5  9  2  0  0  0  0
  6  8  1  0  0  0  0
  6 10  2  0  0  0  0
  7  8  2  0  0  0  0
  9 10  1  0  0  0  0
  9 18  1  0  0  0  0
 10 21  1  0  0  0  0
 11 18  1  0  0  0  0
 11 19  1  0  0  0  0
 11 20  2  0  0  0  0
 12 13  1  0  0  0  0
 12 14  1  0  0  0  0
 13 15  1  0  0  0  0
 14 16  1  0  0  0  0
 15 17  1  0  0  0  0
 16 17  1  0  0  0  0
 17 19  1  0  0  0  0
  1 22  1  0  0  0  0
  2 23  1  0  0  0  0
  3 24  1  0  0  0  0
  4 25  1  0  0  0  0
  5 26  1  0  0  0  0
  6 27  1  0  0  0  0
 12 28  1  0  0  0  0
 12 29  1  0  0  0  0
 13 30  1  0  0  0  0
 13 31  1  0  0  0  0
 14 32  1  0  0  0  0
 14 33  1  0  0  0  0
 15 34  1  0  0  0  0
 15 35  1  0  0  0  0
 16 36  1  0  0  0  0
 16 37  1  0  0  0  0
 17 38  1  0  0  0  0
 18 39  1  0  0  0  0
 19 40  1  0  0  0  0
 21 41  1  0  0  0  0
M  END
> <Name>
A_95

> <SourceTag>
A_95

> <Gold.Version>
5.2

> <Gold.Id.Protein>
6HGV|6HGV_protein|mol2

> <Gold.Goldscore.Fitness>
68.4763

> <Gold.Goldscore.Internal.Vdw>
-3.3289

> <Gold.Goldscore.Internal.Torsion>
-3.1481

> <Gold.Goldscore.External.Vdw>
46.3533

> <Gold.Goldscore.Internal.HBond>
0.0000

> <Gold.Goldscore.External.HBond>
6.0554

> <Gold.Goldscore.Internal.Correction>
-5.1622

> <Gold.Goldscore.Hbonds>
donor molecule, donor type, donor heavy atom, donor atom, acceptor molecule, acceptor atom, score
      P1  H  1931  4507       L1    20  0.03
      L1  H    21    41       P1  2185  1.00

> <Gold.Goldscore.Internal.Vdw.Weighted>
-3.3289

> <Gold.Goldscore.Internal.Torsion.Weighted>
-3.1481

> <Gold.Goldscore.External.Vdw.Weighted>
63.7358

> <Gold.Goldscore.Internal.HBond.Weighted>
0.0000

> <Gold.Goldscore.External.HBond.Weighted>
6.0554

> <Gold.Goldscore.Internal.Correction.Weighted>
-5.1622

> <Gold.Protein.RotatedTorsions>
[ 3781 1176 1175 1172 ] final  -30.17 input   60.00 | X-H torsion
[ 3847 1247 1246 1244 ] final  140.96 input   60.00 | X-H torsion
[ 4507 1931 1930 1928 ] final    9.92 input   60.00 | X-H torsion
[ 3677 1070 1069 1066 ] final  -83.10 input   60.00 | X-H torsion
[ 3525  925  924  922 ] final   54.70 input   59.99 | X-H torsion
[ 4531 1957 1955 1953 ] final  172.24 input   60.00 | X-H torsion

> <Gold.Protein.ActiveResidues>
 PHE267  PRO268  MET310  ASP335  TRP336  MET339  TYR343  THR360  PRO361  ILE363 
 PRO371  SER374  ILE375  ASN378  PHE381  TYR383  GLN384  PHE387  LEU408  LEU417 
 MET419  LEU428  TYR466  MET469  ASN472  ASP496  VAL498  LEU499  MET503  HIS524 
 TRP525 

> <Gold.Protein.RotatedAtoms>
   -2.8843  -29.8205  -30.8711 H   0  0  0  0  0  0  0  0  0  0  0  0  # atno 3525 bound_to 925 
  -11.9866  -23.8323  -31.3377 H   0  0  0  0  0  0  0  0  0  0  0  0  # atno 3677 bound_to 1070
  -10.5888  -36.9667  -34.0157 H   0  0  0  0  0  0  0  0  0  0  0  0  # atno 3781 bound_to 1176
  -14.3385  -27.9689  -37.8797 H   0  0  0  0  0  0  0  0  0  0  0  0  # atno 3847 bound_to 1247
  -13.1503  -25.2456  -38.9853 H   0  0  0  0  0  0  0  0  0  0  0  0  # atno 4507 bound_to 1931
   -1.5915  -33.8496  -36.9529 H   0  0  0  0  0  0  0  0  0  0  0  0  # atno 4531 bound_to 1957
   -9.2619  -36.3427  -33.3100 LP  0  0  0  0  0  0  0  0  0  0  0  0  # atno 5205 bound_to 1176
  -10.2561  -37.3231  -32.4633 LP  0  0  0  0  0  0  0  0  0  0  0  0  # atno 5206 bound_to 1176
  -15.4213  -28.8976  -37.0967 LP  0  0  0  0  0  0  0  0  0  0  0  0  # atno 5215 bound_to 1247
  -15.8106  -27.3714  -37.5277 LP  0  0  0  0  0  0  0  0  0  0  0  0  # atno 5216 bound_to 1247
  -13.5683  -24.6283  -40.4317 LP  0  0  0  0  0  0  0  0  0  0  0  0  # atno 5217 bound_to 1931
  -12.4756  -23.8556  -39.4959 LP  0  0  0  0  0  0  0  0  0  0  0  0  # atno 5218 bound_to 1931
  -11.1834  -22.4686  -30.9589 LP  0  0  0  0  0  0  0  0  0  0  0  0  # atno 5224 bound_to 1070
  -12.6838  -22.7268  -30.3683 LP  0  0  0  0  0  0  0  0  0  0  0  0  # atno 5225 bound_to 1070

$$$$
A_16|SEH_inhibs_minimized|sdf|17|dock7
  -GOLD-   41821 9253D 1   1.00000     0.00000

 65 69  0  0  0  0  0  0  0  0  1 V2000
   -9.2582  -25.8033  -34.6270 C   0  0  0  0  0  0  0  0  0  0  0  0
  -10.3003  -25.0277  -35.1352 C   0  0  0  0  0  0  0  0  0  0  0  0
   -9.1183  -27.1321  -35.0274 C   0  0  0  0  0  0  0  0  0  0  0  0
  -11.0631  -26.9101  -36.4436 C   0  0  0  0  0  0  0  0  0  0  0  0
  -11.2028  -25.5811  -36.0434 C   0  0  0  0  0  0  0  0  0  0  0  0
  -10.0209  -27.6856  -35.9357 C   0  0  0  0  0  0  0  0  0  0  0  0
  -13.5130  -25.2269  -37.0025 C   0  0  0  0  0  0  0  0  0  0  0  0
  -17.9778  -25.9195  -38.6220 C   0  0  0  0  0  0  0  0  0  0  0  0
  -17.5785  -23.9701  -40.1486 C   0  0  0  0  0  0  0  0  0  0  0  0
  -18.4958  -23.5916  -37.8454 C   0  0  0  0  0  0  0  0  0  0  0  0
  -15.6344  -25.2159  -39.1710 C   0  0  0  0  0  0  0  0  0  0  0  0
  -16.5527  -24.8371  -36.8656 C   0  0  0  0  0  0  0  0  0  0  0  0
  -16.1532  -22.8844  -38.3940 C   0  0  0  0  0  0  0  0  0  0  0  0
   -6.4923  -32.9593  -35.6140 C   0  0  0  0  0  0  0  0  0  0  0  0
   -6.8996  -31.6118  -33.6602 C   0  0  0  0  0  0  0  0  0  0  0  0
   -5.0312  -32.5205  -35.5771 C   0  0  0  0  0  0  0  0  0  0  0  0
   -5.4292  -31.2039  -33.6702 C   0  0  0  0  0  0  0  0  0  0  0  0
  -17.0635  -25.3556  -39.7229 C   0  0  0  0  0  0  0  0  0  0  0  0
  -17.9856  -24.9752  -37.4080 C   0  0  0  0  0  0  0  0  0  0  0  0
  -17.5846  -23.0155  -38.9425 C   0  0  0  0  0  0  0  0  0  0  0  0
  -15.6181  -24.2643  -37.9541 C   0  0  0  0  0  0  0  0  0  0  0  0
   -9.5800  -31.3105  -35.8284 C   0  0  0  0  0  0  0  0  0  0  0  0
   -8.7467  -32.3176  -35.0424 C   0  0  0  0  0  0  0  0  0  0  0  0
   -9.2839  -29.8812  -35.3949 C   0  0  0  0  0  0  0  0  0  0  0  0
   -7.3424  -31.9131  -35.0286 N   0  0  0  0  0  0  0  0  0  0  0  0
  -12.2601  -24.7949  -36.5580 N   0  0  0  0  0  0  0  0  0  0  0  0
  -14.2734  -24.1371  -37.4362 N   0  0  0  0  0  0  0  0  0  0  0  0
  -13.9223  -26.3851  -37.0244 O   0  0  0  0  0  0  0  0  0  0  0  0
   -4.6288  -32.2428  -34.2354 O   0  0  0  0  0  0  0  0  0  0  0  0
   -9.8858  -28.9825  -36.3256 O   0  0  0  0  0  0  0  0  0  0  0  0
   -8.5559  -25.3724  -33.9193 H   0  0  0  0  0  0  0  0  0  0  0  0
  -10.3998  -23.9932  -34.8162 H   0  0  0  0  0  0  0  0  0  0  0  0
   -8.3049  -27.7317  -34.6280 H   0  0  0  0  0  0  0  0  0  0  0  0
  -11.7640  -27.3465  -37.1514 H   0  0  0  0  0  0  0  0  0  0  0  0
  -18.9970  -26.0414  -39.0085 H   0  0  0  0  0  0  0  0  0  0  0  0
  -17.6304  -26.9151  -38.3200 H   0  0  0  0  0  0  0  0  0  0  0  0
  -16.9439  -23.5629  -40.9452 H   0  0  0  0  0  0  0  0  0  0  0  0
  -18.5911  -24.0580  -40.5614 H   0  0  0  0  0  0  0  0  0  0  0  0
  -19.5244  -23.6721  -38.2178 H   0  0  0  0  0  0  0  0  0  0  0  0
  -18.5212  -22.9125  -36.9844 H   0  0  0  0  0  0  0  0  0  0  0  0
  -15.2475  -26.2035  -38.8874 H   0  0  0  0  0  0  0  0  0  0  0  0
  -14.9667  -24.8385  -39.9568 H   0  0  0  0  0  0  0  0  0  0  0  0
  -16.5502  -24.1855  -35.9819 H   0  0  0  0  0  0  0  0  0  0  0  0
  -16.1865  -25.8153  -36.5267 H   0  0  0  0  0  0  0  0  0  0  0  0
  -15.4986  -22.4499  -39.1607 H   0  0  0  0  0  0  0  0  0  0  0  0
  -16.1423  -22.1843  -37.5481 H   0  0  0  0  0  0  0  0  0  0  0  0
   -6.7820  -33.1458  -36.6541 H   0  0  0  0  0  0  0  0  0  0  0  0
   -6.6052  -33.8968  -35.0549 H   0  0  0  0  0  0  0  0  0  0  0  0
   -7.0299  -32.4910  -33.0165 H   0  0  0  0  0  0  0  0  0  0  0  0
   -7.4926  -30.7913  -33.2411 H   0  0  0  0  0  0  0  0  0  0  0  0
   -4.3921  -33.3239  -35.9574 H   0  0  0  0  0  0  0  0  0  0  0  0
   -4.8593  -31.6355  -36.2017 H   0  0  0  0  0  0  0  0  0  0  0  0
   -5.2699  -30.2740  -34.2297 H   0  0  0  0  0  0  0  0  0  0  0  0
   -5.0816  -31.0367  -32.6457 H   0  0  0  0  0  0  0  0  0  0  0  0
  -17.0627  -26.0312  -40.5855 H   0  0  0  0  0  0  0  0  0  0  0  0
  -18.6393  -25.3811  -36.6278 H   0  0  0  0  0  0  0  0  0  0  0  0
  -17.9540  -22.0313  -39.2513 H   0  0  0  0  0  0  0  0  0  0  0  0
   -9.3864  -31.4089  -36.9045 H   0  0  0  0  0  0  0  0  0  0  0  0
  -10.6513  -31.5120  -35.6979 H   0  0  0  0  0  0  0  0  0  0  0  0
   -8.8334  -33.3135  -35.4905 H   0  0  0  0  0  0  0  0  0  0  0  0
   -9.1092  -32.3831  -34.0109 H   0  0  0  0  0  0  0  0  0  0  0  0
   -8.2056  -29.6936  -35.3776 H   0  0  0  0  0  0  0  0  0  0  0  0
   -9.6967  -29.6811  -34.4010 H   0  0  0  0  0  0  0  0  0  0  0  0
  -12.0878  -23.7941  -36.6111 H   0  0  0  0  0  0  0  0  0  0  0  0
  -13.8619  -23.2114  -37.3853 H   0  0  0  0  0  0  0  0  0  0  0  0
  1  2  1  0  0  0  0
  1  3  2  0  0  0  0
  2  5  2  0  0  0  0
  3  6  1  0  0  0  0
  4  5  1  0  0  0  0
  4  6  2  0  0  0  0
  5 26  1  0  0  0  0
  6 30  1  0  0  0  0
  7 26  1  0  0  0  0
  7 27  1  0  0  0  0
  7 28  2  0  0  0  0
  8 18  1  0  0  0  0
  8 19  1  0  0  0  0
  9 18  1  0  0  0  0
  9 20  1  0  0  0  0
 10 19  1  0  0  0  0
 10 20  1  0  0  0  0
 11 18  1  0  0  0  0
 11 21  1  0  0  0  0
 12 19  1  0  0  0  0
 12 21  1  0  0  0  0
 13 20  1  0  0  0  0
 13 21  1  0  0  0  0
 14 16  1  0  0  0  0
 14 25  1  0  0  0  0
 15 17  1  0  0  0  0
 15 25  1  0  0  0  0
 16 29  1  0  0  0  0
 17 29  1  0  0  0  0
 21 27  1  0  0  0  0
 22 23  1  0  0  0  0
 22 24  1  0  0  0  0
 23 25  1  0  0  0  0
 24 30  1  0  0  0  0
  1 31  1  0  0  0  0
  2 32  1  0  0  0  0
  3 33  1  0  0  0  0
  4 34  1  0  0  0  0
  8 35  1  0  0  0  0
  8 36  1  0  0  0  0
  9 37  1  0  0  0  0
  9 38  1  0  0  0  0
 10 39  1  0  0  0  0
 10 40  1  0  0  0  0
 11 41  1  0  0  0  0
 11 42  1  0  0  0  0
 12 43  1  0  0  0  0
 12 44  1  0  0  0  0
 13 45  1  0  0  0  0
 13 46  1  0  0  0  0
 14 47  1  0  0  0  0
 14 48  1  0  0  0  0
 15 49  1  0  0  0  0
 15 50  1  0  0  0  0
 16 51  1  0  0  0  0
 16 52  1  0  0  0  0
 17 53  1  0  0  0  0
 17 54  1  0  0  0  0
 18 55  1  0  0  0  0
 19 56  1  0  0  0  0
 20 57  1  0  0  0  0
 22 58  1  0  0  0  0
 22 59  1  0  0  0  0
 23 60  1  0  0  0  0
 23 61  1  0  0  0  0
 24 62  1  0  0  0  0
 24 63  1  0  0  0  0
 26 64  1  0  0  0  0
 27 65  1  0  0  0  0
M  END
> <Name>
A_16

> <SourceTag>
A_16

> <Gold.Version>
5.2

> <Gold.Id.Protein>
6HGV|6HGV_protein|mol2

> <Gold.Goldscore.Fitness>
74.3453

> <Gold.Goldscore.Internal.Vdw>
-10.0974

> <Gold.Goldscore.Internal.Torsion>
-4.8460

> <Gold.Goldscore.External.Vdw>
53.8280

> <Gold.Goldscore.Internal.HBond>
0.0000

> <Gold.Goldscore.External.HBond>
3.1016

> <Gold.Goldscore.Internal.Correction>
-12.1735

> <Gold.Goldscore.Hbonds>
donor molecule, donor type, donor heavy atom, donor atom, acceptor molecule, acceptor atom, score
      P1  H  1256  3854       L1    30  0.01
      L1  H    26    64       P1   854  0.27
      L1  H    27    65       P1   854  0.24

> <Gold.Goldscore.Internal.Vdw.Weighted>
-10.0974

> <Gold.Goldscore.Internal.Torsion.Weighted>
-4.8460

> <Gold.Goldscore.External.Vdw.Weighted>
74.0135

> <Gold.Goldscore.Internal.HBond.Weighted>
0.0000

> <Gold.Goldscore.External.HBond.Weighted>
3.1016

> <Gold.Goldscore.Internal.Correction.Weighted>
-12.1735

> <Gold.Protein.RotatedTorsions>
[ 3781 1176 1175 1172 ] final  -97.31 input   60.00 | X-H torsion
[ 3847 1247 1246 1244 ] final   63.35 input   60.00 | X-H torsion
[ 4507 1931 1930 1928 ] final  138.77 input   60.00 | X-H torsion
[ 3677 1070 1069 1066 ] final -118.41 input   60.00 | X-H torsion
[ 3525  925  924  922 ] final   39.96 input   59.99 | X-H torsion
[ 4531 1957 1955 1953 ] final  -53.05 input   60.00 | X-H torsion

> <Gold.Protein.ActiveResidues>
 PHE267  PRO268  MET310  ASP335  TRP336  MET339  TYR343  THR360  PRO361  ILE363 
 PRO371  SER374  ILE375  ASN378  PHE381  TYR383  GLN384  PHE387  LEU408  LEU417 
 MET419  LEU428  TYR466  MET469  ASN472  ASP496  VAL498  LEU499  MET503  HIS524 
 TRP525 

> <Gold.Protein.RotatedAtoms>
   -3.1036  -29.7277  -30.8399 H   0  0  0  0  0  0  0  0  0  0  0  0  # atno 3525 bound_to 925 
  -11.4828  -23.5959  -31.4507 H   0  0  0  0  0  0  0  0  0  0  0  0  # atno 3677 bound_to 1070
   -9.7256  -36.3951  -34.0042 H   0  0  0  0  0  0  0  0  0  0  0  0  # atno 3781 bound_to 1176
  -14.7883  -28.9104  -37.3430 H   0  0  0  0  0  0  0  0  0  0  0  0  # atno 3847 bound_to 1247
  -12.5217  -23.8156  -39.6277 H   0  0  0  0  0  0  0  0  0  0  0  0  # atno 4507 bound_to 1931
   -2.0896  -32.1993  -36.8297 H   0  0  0  0  0  0  0  0  0  0  0  0  # atno 4531 bound_to 1957
   -9.5563  -36.8598  -32.4539 LP  0  0  0  0  0  0  0  0  0  0  0  0  # atno 5205 bound_to 1176
  -10.8310  -37.3816  -33.3311 LP  0  0  0  0  0  0  0  0  0  0  0  0  # atno 5206 bound_to 1176
  -16.0719  -27.9183  -37.2160 LP  0  0  0  0  0  0  0  0  0  0  0  0  # atno 5215 bound_to 1247
  -14.7070  -27.4025  -37.9490 LP  0  0  0  0  0  0  0  0  0  0  0  0  # atno 5216 bound_to 1247
  -13.0545  -25.1724  -38.9043 LP  0  0  0  0  0  0  0  0  0  0  0  0  # atno 5217 bound_to 1931
  -13.6224  -24.7515  -40.3764 LP  0  0  0  0  0  0  0  0  0  0  0  0  # atno 5218 bound_to 1931
  -11.5570  -22.1979  -30.6211 LP  0  0  0  0  0  0  0  0  0  0  0  0  # atno 5224 bound_to 1070
  -12.8175  -23.2356  -30.5923 LP  0  0  0  0  0  0  0  0  0  0  0  0  # atno 5225 bound_to 1070

$$$$
A_121|SEH_inhibs_minimized|sdf|12|dock6
  -GOLD-   41821 9153D 1   1.00000     0.00000

 48 50  0  0  0  0  0  0  0  0  1 V2000
  -18.9473  -25.1575  -36.0477 C   0  0  0  0  0  0  0  0  0  0  0  0
  -17.9693  -25.2724  -38.2539 C   0  0  0  0  0  0  0  0  0  0  0  0
  -17.6881  -25.3501  -35.4794 C   0  0  0  0  0  0  0  0  0  0  0  0
  -16.7100  -25.4649  -37.6857 C   0  0  0  0  0  0  0  0  0  0  0  0
   -8.0447  -29.8714  -34.6544 C   0  0  0  0  0  0  0  0  0  0  0  0
  -10.2502  -30.8429  -34.8242 C   0  0  0  0  0  0  0  0  0  0  0  0
   -7.5140  -30.9537  -35.3564 C   0  0  0  0  0  0  0  0  0  0  0  0
   -9.7195  -31.9251  -35.5262 C   0  0  0  0  0  0  0  0  0  0  0  0
  -19.0879  -25.1187  -37.4348 C   0  0  0  0  0  0  0  0  0  0  0  0
  -16.5695  -25.5038  -36.2985 C   0  0  0  0  0  0  0  0  0  0  0  0
   -9.4128  -29.8161  -34.3882 C   0  0  0  0  0  0  0  0  0  0  0  0
   -8.3514  -31.9804  -35.7923 C   0  0  0  0  0  0  0  0  0  0  0  0
  -14.0579  -25.2523  -36.2021 C   0  0  0  0  0  0  0  0  0  0  0  0
  -10.9717  -26.4072  -36.4465 C   0  0  0  0  0  0  0  0  0  0  0  0
  -10.8891  -25.1495  -34.2518 C   0  0  0  0  0  0  0  0  0  0  0  0
  -10.7619  -27.7217  -35.6974 C   0  0  0  0  0  0  0  0  0  0  0  0
  -10.6795  -26.4669  -33.5082 C   0  0  0  0  0  0  0  0  0  0  0  0
  -11.6394  -25.3377  -35.5750 C   0  0  2  0  0  0  0  0  0  0  0  0
   -9.9999  -27.5116  -34.3913 C   0  0  1  0  0  0  0  0  0  0  0  0
  -20.4343  -24.9128  -38.0424 C   0  0  0  0  0  0  0  0  0  0  0  0
  -15.2924  -25.6989  -35.7225 N   0  0  0  0  0  0  0  0  0  0  0  0
  -13.0315  -25.6527  -35.3417 N   0  0  0  0  0  0  0  0  0  0  0  0
  -13.8616  -24.6008  -37.2252 O   0  0  0  0  0  0  0  0  0  0  0  0
   -9.9339  -28.7535  -33.6989 O   0  0  0  0  0  0  0  0  0  0  0  0
   -7.8418  -33.0197  -36.4665 F   0  0  0  0  0  0  0  0  0  0  0  0
  -20.4337  -24.9702  -39.4072 F   0  0  0  0  0  0  0  0  0  0  0  0
  -21.3594  -25.8372  -37.6479 F   0  0  0  0  0  0  0  0  0  0  0  0
  -20.9726  -23.6988  -37.7274 F   0  0  0  0  0  0  0  0  0  0  0  0
  -19.8137  -25.0409  -35.4020 H   0  0  0  0  0  0  0  0  0  0  0  0
  -18.0699  -25.2441  -39.3357 H   0  0  0  0  0  0  0  0  0  0  0  0
  -17.5901  -25.3784  -34.3971 H   0  0  0  0  0  0  0  0  0  0  0  0
  -15.8452  -25.5846  -38.3333 H   0  0  0  0  0  0  0  0  0  0  0  0
   -7.3871  -29.0746  -34.3175 H   0  0  0  0  0  0  0  0  0  0  0  0
  -11.3168  -30.8055  -34.6199 H   0  0  0  0  0  0  0  0  0  0  0  0
   -6.4488  -30.9971  -35.5638 H   0  0  0  0  0  0  0  0  0  0  0  0
  -10.3711  -32.7247  -35.8657 H   0  0  0  0  0  0  0  0  0  0  0  0
   -9.9963  -26.0337  -36.7835 H   0  0  0  0  0  0  0  0  0  0  0  0
  -11.5680  -26.5938  -37.3477 H   0  0  0  0  0  0  0  0  0  0  0  0
  -11.4271  -24.4478  -33.6031 H   0  0  0  0  0  0  0  0  0  0  0  0
   -9.9088  -24.7016  -34.4592 H   0  0  0  0  0  0  0  0  0  0  0  0
  -11.7292  -28.1979  -35.4912 H   0  0  0  0  0  0  0  0  0  0  0  0
  -10.2163  -28.4303  -36.3324 H   0  0  0  0  0  0  0  0  0  0  0  0
  -10.0758  -26.2945  -32.6088 H   0  0  0  0  0  0  0  0  0  0  0  0
  -11.6404  -26.8551  -33.1464 H   0  0  0  0  0  0  0  0  0  0  0  0
  -11.6434  -24.3869  -36.1198 H   0  0  0  0  0  0  0  0  0  0  0  0
   -8.9728  -27.1991  -34.6150 H   0  0  0  0  0  0  0  0  0  0  0  0
  -15.2758  -26.2280  -34.8543 H   0  0  0  0  0  0  0  0  0  0  0  0
  -13.2743  -26.1890  -34.5154 H   0  0  0  0  0  0  0  0  0  0  0  0
  1  3  1  0  0  0  0
  1  9  2  0  0  0  0
  2  4  2  0  0  0  0
  2  9  1  0  0  0  0
  3 10  2  0  0  0  0
  4 10  1  0  0  0  0
  5  7  1  0  0  0  0
  5 11  2  0  0  0  0
  6  8  2  0  0  0  0
  6 11  1  0  0  0  0
  7 12  2  0  0  0  0
  8 12  1  0  0  0  0
  9 20  1  0  0  0  0
 10 21  1  0  0  0  0
 11 24  1  0  0  0  0
 12 25  1  0  0  0  0
 13 21  1  0  0  0  0
 13 22  1  0  0  0  0
 13 23  2  0  0  0  0
 14 16  1  0  0  0  0
 14 18  1  0  0  0  0
 15 17  1  0  0  0  0
 15 18  1  0  0  0  0
 16 19  1  0  0  0  0
 17 19  1  0  0  0  0
 18 22  1  0  0  0  0
 19 24  1  0  0  0  0
 20 26  1  0  0  0  0
 20 27  1  0  0  0  0
 20 28  1  0  0  0  0
  1 29  1  0  0  0  0
  2 30  1  0  0  0  0
  3 31  1  0  0  0  0
  4 32  1  0  0  0  0
  5 33  1  0  0  0  0
  6 34  1  0  0  0  0
  7 35  1  0  0  0  0
  8 36  1  0  0  0  0
 14 37  1  0  0  0  0
 14 38  1  0  0  0  0
 15 39  1  0  0  0  0
 15 40  1  0  0  0  0
 16 41  1  0  0  0  0
 16 42  1  0  0  0  0
 17 43  1  0  0  0  0
 17 44  1  0  0  0  0
 18 45  1  0  0  0  0
 19 46  1  0  0  0  0
 21 47  1  0  0  0  0
 22 48  1  0  0  0  0
M  END
> <SourceTag>
A_121

> <Gold.Version>
5.2

> <Gold.Id.Protein>
6HGV|6HGV_protein|mol2

> <Gold.Goldscore.Fitness>
66.8318

> <Gold.Goldscore.Internal.Vdw>
-0.1568

> <Gold.Goldscore.Internal.Torsion>
-5.1644

> <Gold.Goldscore.External.Vdw>
48.9203

> <Gold.Goldscore.Internal.HBond>
0.0000

> <Gold.Goldscore.External.HBond>
0.4778

> <Gold.Goldscore.Internal.Correction>
-4.4097

> <Gold.Goldscore.Hbonds>
donor molecule, donor type, donor heavy atom, donor atom, acceptor molecule, acceptor atom, score
      P1  H  1931  4507       L1    23  0.24

> <Gold.Goldscore.Internal.Vdw.Weighted>
-0.1568

> <Gold.Goldscore.Internal.Torsion.Weighted>
-5.1644

> <Gold.Goldscore.External.Vdw.Weighted>
67.2655

> <Gold.Goldscore.Internal.HBond.Weighted>
0.0000

> <Gold.Goldscore.External.HBond.Weighted>
0.4778

> <Gold.Goldscore.Internal.Correction.Weighted>
-4.4097

> <Gold.Protein.RotatedTorsions>
[ 3781 1176 1175 1172 ] final  -96.99 input   60.00 | X-H torsion
[ 3847 1247 1246 1244 ] final  154.24 input   60.00 | X-H torsion
[ 4507 1931 1930 1928 ] final   31.03 input   60.00 | X-H torsion
[ 3677 1070 1069 1066 ] final -103.57 input   60.00 | X-H torsion
[ 3525  925  924  922 ] final  125.46 input   59.99 | X-H torsion
[ 4531 1957 1955 1953 ] final   -0.86 input   60.00 | X-H torsion

> <Gold.Protein.ActiveResidues>
 PHE267  PRO268  MET310  ASP335  TRP336  MET339  TYR343  THR360  PRO361  ILE363 
 PRO371  SER374  ILE375  ASN378  PHE381  TYR383  GLN384  PHE387  LEU408  LEU417 
 MET419  LEU428  TYR466  MET469  ASN472  ASP496  VAL498  LEU499  MET503  HIS524 
 TRP525 

> <Gold.Protein.RotatedAtoms>
   -2.0937  -30.2222  -30.2475 H   0  0  0  0  0  0  0  0  0  0  0  0  # atno 3525 bound_to 925 
  -11.6835  -23.7288  -31.4277 H   0  0  0  0  0  0  0  0  0  0  0  0  # atno 3677 bound_to 1070
   -9.7297  -36.3967  -34.0069 H   0  0  0  0  0  0  0  0  0  0  0  0  # atno 3781 bound_to 1176
  -14.4125  -27.7709  -37.9264 H   0  0  0  0  0  0  0  0  0  0  0  0  # atno 3847 bound_to 1247
  -12.9188  -25.0412  -38.8357 H   0  0  0  0  0  0  0  0  0  0  0  0  # atno 4507 bound_to 1931
   -2.8476  -32.4904  -36.6906 H   0  0  0  0  0  0  0  0  0  0  0  0  # atno 4531 bound_to 1957
   -9.5528  -36.8566  -32.4560 LP  0  0  0  0  0  0  0  0  0  0  0  0  # atno 5205 bound_to 1176
  -10.8304  -37.3831  -33.3262 LP  0  0  0  0  0  0  0  0  0  0  0  0  # atno 5206 bound_to 1176
  -15.2190  -28.9547  -37.1543 LP  0  0  0  0  0  0  0  0  0  0  0  0  # atno 5215 bound_to 1247
  -15.9384  -27.5137  -37.4232 LP  0  0  0  0  0  0  0  0  0  0  0  0  # atno 5216 bound_to 1247
  -13.6753  -24.9147  -40.2709 LP  0  0  0  0  0  0  0  0  0  0  0  0  # atno 5217 bound_to 1931
  -12.6017  -23.7749  -39.8073 LP  0  0  0  0  0  0  0  0  0  0  0  0  # atno 5218 bound_to 1931
  -11.3724  -22.2787  -30.7578 LP  0  0  0  0  0  0  0  0  0  0  0  0  # atno 5224 bound_to 1070
  -12.8000  -23.0210  -30.4787 LP  0  0  0  0  0  0  0  0  0  0  0  0  # atno 5225 bound_to 1070

$$$$
A_48|SEH_inhibs_minimized|sdf|34|dock10
  -GOLD-   4182110 03D 1   1.00000     0.00000

 44 47  0  0  0  0  0  0  0  0  1 V2000
  -20.0035  -23.9375  -38.2682 C   0  0  0  0  0  0  0  0  0  0  0  0
  -19.1227  -23.8813  -39.3484 C   0  0  0  0  0  0  0  0  0  0  0  0
  -19.5211  -24.2115  -36.9884 C   0  0  0  0  0  0  0  0  0  0  0  0
   -8.0028  -32.5071  -36.0799 C   0  0  0  0  0  0  0  0  0  0  0  0
   -8.7615  -31.3513  -35.9316 C   0  0  0  0  0  0  0  0  0  0  0  0
  -17.7594  -24.0990  -39.1485 C   0  0  0  0  0  0  0  0  0  0  0  0
  -18.1578  -24.4292  -36.7888 C   0  0  0  0  0  0  0  0  0  0  0  0
  -12.8949  -27.5819  -35.1419 C   0  0  0  0  0  0  0  0  0  0  0  0
  -14.1531  -27.1031  -35.4900 C   0  0  0  0  0  0  0  0  0  0  0  0
   -8.4668  -27.7638  -34.7764 C   0  0  0  0  0  0  0  0  0  0  0  0
   -6.6398  -32.4226  -35.8460 C   0  0  0  0  0  0  0  0  0  0  0  0
   -6.7733  -30.1835  -35.3485 C   0  0  0  0  0  0  0  0  0  0  0  0
  -11.9658  -26.2561  -36.8844 C   0  0  0  0  0  0  0  0  0  0  0  0
   -8.1426  -30.1632  -35.5592 C   0  0  0  0  0  0  0  0  0  0  0  0
  -17.2771  -24.3729  -37.8687 C   0  0  0  0  0  0  0  0  0  0  0  0
  -11.7752  -27.1552  -35.8475 C   0  0  0  0  0  0  0  0  0  0  0  0
   -8.9007  -28.9503  -35.3974 C   0  0  0  0  0  0  0  0  0  0  0  0
   -9.5397  -26.9119  -34.8757 C   0  0  0  0  0  0  0  0  0  0  0  0
  -14.2373  -26.2064  -36.5428 C   0  0  0  0  0  0  0  0  0  0  0  0
  -15.8563  -24.6015  -37.6603 C   0  0  0  0  0  0  0  0  0  0  0  0
   -9.7066  -25.5201  -34.4135 C   0  0  0  0  0  0  0  0  0  0  0  0
   -6.0032  -31.2866  -35.4829 N   0  0  0  0  0  0  0  0  0  0  0  0
  -13.1724  -25.7690  -37.2515 N   0  0  0  0  0  0  0  0  0  0  0  0
  -10.1518  -28.8641  -35.8570 N   0  0  0  0  0  0  0  0  0  0  0  0
  -10.5134  -27.6130  -35.5247 N   0  0  0  0  0  0  0  0  0  0  0  0
  -15.5234  -25.7242  -36.8894 N   0  0  0  0  0  0  0  0  0  0  0  0
  -15.0376  -23.8252  -38.1792 O   0  0  0  0  0  0  0  0  0  0  0  0
  -10.1948  -24.6835  -35.3837 F   0  0  0  0  0  0  0  0  0  0  0  0
  -10.5711  -25.3776  -33.3577 F   0  0  0  0  0  0  0  0  0  0  0  0
   -8.5454  -24.9259  -33.9876 F   0  0  0  0  0  0  0  0  0  0  0  0
  -21.0649  -23.7683  -38.4241 H   0  0  0  0  0  0  0  0  0  0  0  0
  -19.4993  -23.6688  -40.3447 H   0  0  0  0  0  0  0  0  0  0  0  0
  -20.2074  -24.2551  -36.1478 H   0  0  0  0  0  0  0  0  0  0  0  0
   -8.4637  -33.4444  -36.3695 H   0  0  0  0  0  0  0  0  0  0  0  0
   -9.8332  -31.3923  -36.1100 H   0  0  0  0  0  0  0  0  0  0  0  0
  -17.0823  -24.0517  -39.9977 H   0  0  0  0  0  0  0  0  0  0  0  0
  -17.7934  -24.6417  -35.7870 H   0  0  0  0  0  0  0  0  0  0  0  0
  -12.8006  -28.2872  -34.3203 H   0  0  0  0  0  0  0  0  0  0  0  0
  -15.0323  -27.4316  -34.9451 H   0  0  0  0  0  0  0  0  0  0  0  0
   -7.5105  -27.5515  -34.3193 H   0  0  0  0  0  0  0  0  0  0  0  0
   -6.0041  -33.2960  -35.9485 H   0  0  0  0  0  0  0  0  0  0  0  0
   -6.2299  -29.2897  -35.0562 H   0  0  0  0  0  0  0  0  0  0  0  0
  -11.1317  -25.8847  -37.4727 H   0  0  0  0  0  0  0  0  0  0  0  0
  -16.2959  -26.2887  -36.5441 H   0  0  0  0  0  0  0  0  0  0  0  0
  1  2  2  0  0  0  0
  1  3  1  0  0  0  0
  2  6  1  0  0  0  0
  3  7  2  0  0  0  0
  4  5  1  0  0  0  0
  4 11  2  0  0  0  0
  5 14  2  0  0  0  0
  6 15  2  0  0  0  0
  7 15  1  0  0  0  0
  8  9  2  0  0  0  0
  8 16  1  0  0  0  0
  9 19  1  0  0  0  0
 10 17  1  0  0  0  0
 10 18  2  0  0  0  0
 11 22  1  0  0  0  0
 12 14  1  0  0  0  0
 12 22  2  0  0  0  0
 13 16  2  0  0  0  0
 13 23  1  0  0  0  0
 14 17  1  0  0  0  0
 15 20  1  0  0  0  0
 16 25  1  0  0  0  0
 17 24  2  0  0  0  0
 18 21  1  0  0  0  0
 18 25  1  0  0  0  0
 19 23  2  0  0  0  0
 19 26  1  0  0  0  0
 20 26  1  0  0  0  0
 20 27  2  0  0  0  0
 21 28  1  0  0  0  0
 21 29  1  0  0  0  0
 21 30  1  0  0  0  0
 24 25  1  0  0  0  0
  1 31  1  0  0  0  0
  2 32  1  0  0  0  0
  3 33  1  0  0  0  0
  4 34  1  0  0  0  0
  5 35  1  0  0  0  0
  6 36  1  0  0  0  0
  7 37  1  0  0  0  0
  8 38  1  0  0  0  0
  9 39  1  0  0  0  0
 10 40  1  0  0  0  0
 11 41  1  0  0  0  0
 12 42  1  0  0  0  0
 13 43  1  0  0  0  0
 26 44  1  0  0  0  0
M  END
> <Name>
A_48

> <SourceTag>
A_48

> <Gold.Version>
5.2

> <Gold.Id.Protein>
6HGV|6HGV_protein|mol2

> <Gold.Goldscore.Fitness>
73.4109

> <Gold.Goldscore.Internal.Vdw>
1.7716

> <Gold.Goldscore.Internal.Torsion>
-10.6879

> <Gold.Goldscore.External.Vdw>
52.9704

> <Gold.Goldscore.Internal.HBond>
0.0000

> <Gold.Goldscore.External.HBond>
2.0108

> <Gold.Goldscore.Internal.Correction>
-7.4821

> <Gold.Goldscore.Hbonds>
donor molecule, donor type, donor heavy atom, donor atom, acceptor molecule, acceptor atom, score
      P1  H  1256  3854       L1    24  0.07
      P1  H  1931  4507       L1    23  0.91
      P1  H  1957  4531       L1    22  0.02

> <Gold.Goldscore.Internal.Vdw.Weighted>
1.7716

> <Gold.Goldscore.Internal.Torsion.Weighted>
-10.6879

> <Gold.Goldscore.External.Vdw.Weighted>
72.8343

> <Gold.Goldscore.Internal.HBond.Weighted>
0.0000

> <Gold.Goldscore.External.HBond.Weighted>
2.0108

> <Gold.Goldscore.Internal.Correction.Weighted>
-7.4821

> <Gold.Protein.RotatedTorsions>
[ 3781 1176 1175 1172 ] final  -50.50 input   60.00 | X-H torsion
[ 3847 1247 1246 1244 ] final   63.08 input   60.00 | X-H torsion
[ 4507 1931 1930 1928 ] final   17.37 input   60.00 | X-H torsion
[ 3677 1070 1069 1066 ] final  -94.97 input   60.00 | X-H torsion
[ 3525  925  924  922 ] final -157.22 input   59.99 | X-H torsion
[ 4531 1957 1955 1953 ] final   17.16 input   60.00 | X-H torsion

> <Gold.Protein.ActiveResidues>
 PHE267  PRO268  MET310  ASP335  TRP336  MET339  TYR343  THR360  PRO361  ILE363 
 PRO371  SER374  ILE375  ASN378  PHE381  TYR383  GLN384  PHE387  LEU408  LEU417 
 MET419  LEU428  TYR466  MET469  ASN472  ASP496  VAL498  LEU499  MET503  HIS524 
 TRP525 

> <Gold.Protein.RotatedAtoms>
   -2.4849  -30.1523  -29.1473 H   0  0  0  0  0  0  0  0  0  0  0  0  # atno 3525 bound_to 925 
  -11.8089  -23.7843  -31.3977 H   0  0  0  0  0  0  0  0  0  0  0  0  # atno 3677 bound_to 1070
  -10.3564  -36.7659  -34.1377 H   0  0  0  0  0  0  0  0  0  0  0  0  # atno 3781 bound_to 1176
  -14.7920  -28.9118  -37.3410 H   0  0  0  0  0  0  0  0  0  0  0  0  # atno 3847 bound_to 1247
  -13.0683  -25.1825  -38.9212 H   0  0  0  0  0  0  0  0  0  0  0  0  # atno 4507 bound_to 1931
   -3.0102  -32.7328  -36.6639 H   0  0  0  0  0  0  0  0  0  0  0  0  # atno 4531 bound_to 1957
   -9.2424  -36.4477  -32.9949 LP  0  0  0  0  0  0  0  0  0  0  0  0  # atno 5205 bound_to 1176
  -10.5096  -37.4202  -32.6556 LP  0  0  0  0  0  0  0  0  0  0  0  0  # atno 5206 bound_to 1176
  -16.0717  -27.9143  -37.2176 LP  0  0  0  0  0  0  0  0  0  0  0  0  # atno 5215 bound_to 1247
  -14.7036  -27.4051  -37.9494 LP  0  0  0  0  0  0  0  0  0  0  0  0  # atno 5216 bound_to 1247
  -13.6147  -24.7321  -40.3863 LP  0  0  0  0  0  0  0  0  0  0  0  0  # atno 5217 bound_to 1931
  -12.5117  -23.8152  -39.6058 LP  0  0  0  0  0  0  0  0  0  0  0  0  # atno 5218 bound_to 1931
  -11.2825  -22.3484  -30.8417 LP  0  0  0  0  0  0  0  0  0  0  0  0  # atno 5224 bound_to 1070
  -12.7637  -22.8953  -30.4250 LP  0  0  0  0  0  0  0  0  0  0  0  0  # atno 5225 bound_to 1070

$$$$
A_125|SEH_inhibs_minimized|sdf|13|dock6
  -GOLD-   41821 9173D 1   1.00000     0.00000

 49 52  0  0  0  0  0  0  0  0  1 V2000
  -17.6486  -22.8625  -39.2120 C   0  0  0  0  0  0  0  0  0  0  0  0
  -16.3811  -23.4205  -39.0456 C   0  0  0  0  0  0  0  0  0  0  0  0
  -18.6548  -23.1277  -38.2830 C   0  0  0  0  0  0  0  0  0  0  0  0
  -17.1261  -24.5091  -37.0214 C   0  0  0  0  0  0  0  0  0  0  0  0
  -16.1198  -24.2439  -37.9503 C   0  0  0  0  0  0  0  0  0  0  0  0
  -18.3936  -23.9510  -37.1878 C   0  0  0  0  0  0  0  0  0  0  0  0
  -14.2119  -25.1841  -36.5879 C   0  0  0  0  0  0  0  0  0  0  0  0
   -9.4408  -26.1184  -34.4235 C   0  0  0  0  0  0  0  0  0  0  0  0
  -10.5631  -28.3604  -34.4820 C   0  0  0  0  0  0  0  0  0  0  0  0
  -11.4170  -26.5706  -32.9469 C   0  0  0  0  0  0  0  0  0  0  0  0
  -10.7834  -26.7967  -36.4298 C   0  0  0  0  0  0  0  0  0  0  0  0
  -11.6380  -25.0050  -34.8931 C   0  0  0  0  0  0  0  0  0  0  0  0
  -12.7624  -27.2503  -34.9511 C   0  0  0  0  0  0  0  0  0  0  0  0
   -9.8369  -27.2992  -35.3259 C   0  0  0  0  0  0  0  0  0  0  0  0
  -10.6949  -25.5002  -33.7830 C   0  0  0  0  0  0  0  0  0  0  0  0
  -11.8233  -27.7541  -33.8415 C   0  0  0  0  0  0  0  0  0  0  0  0
  -12.0550  -26.1781  -35.8078 C   0  0  0  0  0  0  0  0  0  0  0  0
  -21.3574  -25.3184  -35.4954 C   0  0  0  0  0  0  0  0  0  0  0  0
  -20.5031  -24.9846  -36.6911 C   0  0  0  0  0  0  0  0  0  0  0  0
  -14.8344  -24.8093  -37.7819 N   0  0  0  0  0  0  0  0  0  0  0  0
  -12.9411  -25.7043  -36.8484 N   0  0  0  0  0  0  0  0  0  0  0  0
  -14.6798  -25.0870  -35.4560 O   0  0  0  0  0  0  0  0  0  0  0  0
  -19.3755  -24.2100  -36.2813 O   0  0  0  0  0  0  0  0  0  0  0  0
  -20.5978  -25.9138  -34.5430 F   0  0  0  0  0  0  0  0  0  0  0  0
  -22.3090  -26.2144  -35.8546 F   0  0  0  0  0  0  0  0  0  0  0  0
  -20.0888  -26.1295  -37.2844 F   0  0  0  0  0  0  0  0  0  0  0  0
  -21.2409  -24.2774  -37.5810 F   0  0  0  0  0  0  0  0  0  0  0  0
  -17.8514  -22.2207  -40.0643 H   0  0  0  0  0  0  0  0  0  0  0  0
  -15.6048  -23.2074  -39.7761 H   0  0  0  0  0  0  0  0  0  0  0  0
  -19.6397  -22.6893  -38.4182 H   0  0  0  0  0  0  0  0  0  0  0  0
  -16.9270  -25.1501  -36.1655 H   0  0  0  0  0  0  0  0  0  0  0  0
   -8.7509  -26.4597  -33.6419 H   0  0  0  0  0  0  0  0  0  0  0  0
   -8.9074  -25.3606  -35.0104 H   0  0  0  0  0  0  0  0  0  0  0  0
  -10.8373  -29.2161  -35.1110 H   0  0  0  0  0  0  0  0  0  0  0  0
   -9.8929  -28.7407  -33.7015 H   0  0  0  0  0  0  0  0  0  0  0  0
  -10.7617  -26.9195  -32.1395 H   0  0  0  0  0  0  0  0  0  0  0  0
  -12.3057  -26.1380  -32.4712 H   0  0  0  0  0  0  0  0  0  0  0  0
  -10.2660  -26.0566  -37.0544 H   0  0  0  0  0  0  0  0  0  0  0  0
  -11.0525  -27.6268  -37.0964 H   0  0  0  0  0  0  0  0  0  0  0  0
  -12.5257  -24.5375  -34.4468 H   0  0  0  0  0  0  0  0  0  0  0  0
  -11.1418  -24.2220  -35.4818 H   0  0  0  0  0  0  0  0  0  0  0  0
  -13.0798  -28.0914  -35.5814 H   0  0  0  0  0  0  0  0  0  0  0  0
  -13.6772  -26.8384  -34.5048 H   0  0  0  0  0  0  0  0  0  0  0  0
   -8.9399  -27.7364  -35.7783 H   0  0  0  0  0  0  0  0  0  0  0  0
  -10.4068  -24.6607  -33.1404 H   0  0  0  0  0  0  0  0  0  0  0  0
  -12.3351  -28.5137  -33.2403 H   0  0  0  0  0  0  0  0  0  0  0  0
  -21.8408  -24.4383  -35.0625 H   0  0  0  0  0  0  0  0  0  0  0  0
  -14.3029  -24.9600  -38.6358 H   0  0  0  0  0  0  0  0  0  0  0  0
  -12.6257  -25.7520  -37.8112 H   0  0  0  0  0  0  0  0  0  0  0  0
  1  2  2  0  0  0  0
  1  3  1  0  0  0  0
  2  5  1  0  0  0  0
  3  6  2  0  0  0  0
  4  5  2  0  0  0  0
  4  6  1  0  0  0  0
  5 20  1  0  0  0  0
  6 23  1  0  0  0  0
  7 20  1  0  0  0  0
  7 21  1  0  0  0  0
  7 22  2  0  0  0  0
  8 14  1  0  0  0  0
  8 15  1  0  0  0  0
  9 14  1  0  0  0  0
  9 16  1  0  0  0  0
 10 15  1  0  0  0  0
 10 16  1  0  0  0  0
 11 14  1  0  0  0  0
 11 17  1  0  0  0  0
 12 15  1  0  0  0  0
 12 17  1  0  0  0  0
 13 16  1  0  0  0  0
 13 17  1  0  0  0  0
 17 21  1  0  0  0  0
 18 19  1  0  0  0  0
 18 24  1  0  0  0  0
 18 25  1  0  0  0  0
 19 23  1  0  0  0  0
 19 26  1  0  0  0  0
 19 27  1  0  0  0  0
  1 28  1  0  0  0  0
  2 29  1  0  0  0  0
  3 30  1  0  0  0  0
  4 31  1  0  0  0  0
  8 32  1  0  0  0  0
  8 33  1  0  0  0  0
  9 34  1  0  0  0  0
  9 35  1  0  0  0  0
 10 36  1  0  0  0  0
 10 37  1  0  0  0  0
 11 38  1  0  0  0  0
 11 39  1  0  0  0  0
 12 40  1  0  0  0  0
 12 41  1  0  0  0  0
 13 42  1  0  0  0  0
 13 43  1  0  0  0  0
 14 44  1  0  0  0  0
 15 45  1  0  0  0  0
 16 46  1  0  0  0  0
 18 47  1  0  0  0  0
 20 48  1  0  0  0  0
 21 49  1  0  0  0  0
M  END
> <Name>
A_125

> <SourceTag>
A_125

> <Gold.Version>
5.2

> <Gold.Id.Protein>
6HGV|6HGV_protein|mol2

> <Gold.Goldscore.Fitness>
63.6281

> <Gold.Goldscore.Internal.Vdw>
-1.2482

> <Gold.Goldscore.Internal.Torsion>
-4.2839

> <Gold.Goldscore.External.Vdw>
46.0548

> <Gold.Goldscore.Internal.HBond>
0.0000

> <Gold.Goldscore.External.HBond>
1.5388

> <Gold.Goldscore.Internal.Correction>
-4.2960

> <Gold.Goldscore.Hbonds>
donor molecule, donor type, donor heavy atom, donor atom, acceptor molecule, acceptor atom, score
      L1  H    20    48       P1  1931  0.58
      L1  H    21    49       P1  1931  0.19

> <Gold.Goldscore.Internal.Vdw.Weighted>
-1.2482

> <Gold.Goldscore.Internal.Torsion.Weighted>
-4.2839

> <Gold.Goldscore.External.Vdw.Weighted>
63.3254

> <Gold.Goldscore.Internal.HBond.Weighted>
0.0000

> <Gold.Goldscore.External.HBond.Weighted>
1.5388

> <Gold.Goldscore.Internal.Correction.Weighted>
-4.2960

> <Gold.Protein.RotatedTorsions>
[ 3781 1176 1175 1172 ] final  110.08 input   60.00 | X-H torsion
[ 3847 1247 1246 1244 ] final  169.83 input   60.00 | X-H torsion
[ 4507 1931 1930 1928 ] final -171.13 input   60.00 | X-H torsion
[ 3677 1070 1069 1066 ] final  -67.97 input   60.00 | X-H torsion
[ 3525  925  924  922 ] final  128.72 input   59.99 | X-H torsion
[ 4531 1957 1955 1953 ] final  -87.38 input   60.00 | X-H torsion

> <Gold.Protein.ActiveResidues>
 PHE267  PRO268  MET310  ASP335  TRP336  MET339  TYR343  THR360  PRO361  ILE363 
 PRO371  SER374  ILE375  ASN378  PHE381  TYR383  GLN384  PHE387  LEU408  LEU417 
 MET419  LEU428  TYR466  MET469  ASN472  ASP496  VAL498  LEU499  MET503  HIS524 
 TRP525 

> <Gold.Protein.RotatedAtoms>
   -2.0805  -30.2326  -30.1968 H   0  0  0  0  0  0  0  0  0  0  0  0  # atno 3525 bound_to 925 
  -12.2099  -23.8425  -31.2337 H   0  0  0  0  0  0  0  0  0  0  0  0  # atno 3677 bound_to 1070
   -9.9756  -37.1710  -32.3778 H   0  0  0  0  0  0  0  0  0  0  0  0  # atno 3781 bound_to 1176
  -14.5519  -27.5602  -37.9523 H   0  0  0  0  0  0  0  0  0  0  0  0  # atno 3847 bound_to 1247
  -12.9658  -23.9042  -40.2784 H   0  0  0  0  0  0  0  0  0  0  0  0  # atno 4507 bound_to 1931
   -1.5889  -32.4113  -36.9285 H   0  0  0  0  0  0  0  0  0  0  0  0  # atno 4531 bound_to 1957
  -10.7582  -37.1558  -33.8044 LP  0  0  0  0  0  0  0  0  0  0  0  0  # atno 5205 bound_to 1176
   -9.3774  -36.3042  -33.6183 LP  0  0  0  0  0  0  0  0  0  0  0  0  # atno 5206 bound_to 1176
  -14.9800  -28.9620  -37.2453 LP  0  0  0  0  0  0  0  0  0  0  0  0  # atno 5215 bound_to 1247
  -16.0370  -27.7186  -37.3061 LP  0  0  0  0  0  0  0  0  0  0  0  0  # atno 5216 bound_to 1247
  -12.5700  -24.5417  -38.8345 LP  0  0  0  0  0  0  0  0  0  0  0  0  # atno 5217 bound_to 1931
  -13.6597  -25.2930  -39.7909 LP  0  0  0  0  0  0  0  0  0  0  0  0  # atno 5218 bound_to 1931
  -11.1052  -22.6548  -31.1034 LP  0  0  0  0  0  0  0  0  0  0  0  0  # atno 5224 bound_to 1070
  -12.5372  -22.5304  -30.3285 LP  0  0  0  0  0  0  0  0  0  0  0  0  # atno 5225 bound_to 1070

$$$$
A_116|SEH_inhibs_minimized|sdf|9|dock3
  -GOLD-   41821 9 83D 1   1.00000     0.00000

 48 49  0  0  0  0  0  0  0  0  1 V2000
  -13.4558  -25.7471  -36.9724 C   0  0  0  0  0  0  0  0  0  0  0  0
  -18.8387  -23.7920  -37.6136 C   0  0  0  0  0  0  0  0  0  0  0  0
  -18.0583  -22.8417  -38.5154 C   0  0  0  0  0  0  0  0  0  0  0  0
  -18.3524  -25.2404  -37.6143 C   0  0  0  0  0  0  0  0  0  0  0  0
  -16.5521  -22.7904  -38.2633 C   0  0  0  0  0  0  0  0  0  0  0  0
  -17.0324  -25.4178  -36.8692 C   0  0  0  0  0  0  0  0  0  0  0  0
  -15.8317  -24.0524  -38.7355 C   0  0  0  0  0  0  0  0  0  0  0  0
  -11.2961  -27.5123  -35.9235 C   0  0  0  0  0  0  0  0  0  0  0  0
  -10.4669  -25.4879  -34.6697 C   0  0  0  0  0  0  0  0  0  0  0  0
  -11.8267  -28.0819  -34.6092 C   0  0  0  0  0  0  0  0  0  0  0  0
  -11.0239  -26.0883  -33.3808 C   0  0  0  0  0  0  0  0  0  0  0  0
  -15.7733  -25.1908  -37.7120 C   0  0  0  0  0  0  0  0  0  0  0  0
  -11.2140  -25.9826  -35.9113 C   0  0  0  0  0  0  0  0  0  0  0  0
  -10.1481  -29.7893  -32.2781 C   0  0  0  0  0  0  0  0  0  0  0  0
  -11.0023  -27.5771  -33.4730 N   0  0  0  0  0  0  0  0  0  0  0  0
  -14.6316  -25.0178  -36.8372 N   0  0  0  0  0  0  0  0  0  0  0  0
  -12.5248  -25.3821  -36.0032 N   0  0  0  0  0  0  0  0  0  0  0  0
  -13.2599  -26.6029  -37.8343 O   0  0  0  0  0  0  0  0  0  0  0  0
  -12.5778  -28.8955  -31.9249 O   0  0  0  0  0  0  0  0  0  0  0  0
  -10.6456  -27.6096  -30.9256 O   0  0  0  0  0  0  0  0  0  0  0  0
  -11.2191  -28.4053  -31.9879 S   0  0  0  0  0  0  0  0  0  0  0  0
  -18.8357  -23.4029  -36.5877 H   0  0  0  0  0  0  0  0  0  0  0  0
  -19.8867  -23.7800  -37.9386 H   0  0  0  0  0  0  0  0  0  0  0  0
  -18.2471  -23.1008  -39.5647 H   0  0  0  0  0  0  0  0  0  0  0  0
  -18.4660  -21.8327  -38.3748 H   0  0  0  0  0  0  0  0  0  0  0  0
  -19.1119  -25.8380  -37.0942 H   0  0  0  0  0  0  0  0  0  0  0  0
  -18.2914  -25.6365  -38.6345 H   0  0  0  0  0  0  0  0  0  0  0  0
  -16.1558  -21.9445  -38.8396 H   0  0  0  0  0  0  0  0  0  0  0  0
  -16.3371  -22.5752  -37.2105 H   0  0  0  0  0  0  0  0  0  0  0  0
  -17.0214  -24.7726  -35.9805 H   0  0  0  0  0  0  0  0  0  0  0  0
  -16.9886  -26.4435  -36.4777 H   0  0  0  0  0  0  0  0  0  0  0  0
  -16.3082  -24.4187  -39.6539 H   0  0  0  0  0  0  0  0  0  0  0  0
  -14.8069  -23.7811  -39.0231 H   0  0  0  0  0  0  0  0  0  0  0  0
  -10.2892  -27.9132  -36.0987 H   0  0  0  0  0  0  0  0  0  0  0  0
  -11.9256  -27.8578  -36.7523 H   0  0  0  0  0  0  0  0  0  0  0  0
  -10.5031  -24.3936  -34.6089 H   0  0  0  0  0  0  0  0  0  0  0  0
   -9.4094  -25.7684  -34.7617 H   0  0  0  0  0  0  0  0  0  0  0  0
  -12.8758  -27.8041  -34.4572 H   0  0  0  0  0  0  0  0  0  0  0  0
  -11.7639  -29.1751  -34.6469 H   0  0  0  0  0  0  0  0  0  0  0  0
  -10.3969  -25.7669  -32.5420 H   0  0  0  0  0  0  0  0  0  0  0  0
  -12.0474  -25.7431  -33.1961 H   0  0  0  0  0  0  0  0  0  0  0  0
  -15.5612  -26.1120  -38.2697 H   0  0  0  0  0  0  0  0  0  0  0  0
  -10.6760  -25.6455  -36.8089 H   0  0  0  0  0  0  0  0  0  0  0  0
   -9.9651  -30.2889  -31.3255 H   0  0  0  0  0  0  0  0  0  0  0  0
  -10.6423  -30.4666  -32.9763 H   0  0  0  0  0  0  0  0  0  0  0  0
   -9.2134  -29.4185  -32.7013 H   0  0  0  0  0  0  0  0  0  0  0  0
  -14.6929  -24.3336  -36.0922 H   0  0  0  0  0  0  0  0  0  0  0  0
  -12.7572  -24.6317  -35.3602 H   0  0  0  0  0  0  0  0  0  0  0  0
  1 16  1  0  0  0  0
  1 17  1  0  0  0  0
  1 18  2  0  0  0  0
  2  3  1  0  0  0  0
  2  4  1  0  0  0  0
  3  5  1  0  0  0  0
  4  6  1  0  0  0  0
  5  7  1  0  0  0  0
  6 12  1  0  0  0  0
  7 12  1  0  0  0  0
  8 10  1  0  0  0  0
  8 13  1  0  0  0  0
  9 11  1  0  0  0  0
  9 13  1  0  0  0  0
 10 15  1  0  0  0  0
 11 15  1  0  0  0  0
 12 16  1  0  0  0  0
 13 17  1  0  0  0  0
 14 21  1  0  0  0  0
 15 21  1  0  0  0  0
 19 21  2  0  0  0  0
 20 21  2  0  0  0  0
  2 22  1  0  0  0  0
  2 23  1  0  0  0  0
  3 24  1  0  0  0  0
  3 25  1  0  0  0  0
  4 26  1  0  0  0  0
  4 27  1  0  0  0  0
  5 28  1  0  0  0  0
  5 29  1  0  0  0  0
  6 30  1  0  0  0  0
  6 31  1  0  0  0  0
  7 32  1  0  0  0  0
  7 33  1  0  0  0  0
  8 34  1  0  0  0  0
  8 35  1  0  0  0  0
  9 36  1  0  0  0  0
  9 37  1  0  0  0  0
 10 38  1  0  0  0  0
 10 39  1  0  0  0  0
 11 40  1  0  0  0  0
 11 41  1  0  0  0  0
 12 42  1  0  0  0  0
 13 43  1  0  0  0  0
 14 44  1  0  0  0  0
 14 45  1  0  0  0  0
 14 46  1  0  0  0  0
 16 47  1  0  0  0  0
 17 48  1  0  0  0  0
M  END
> <Name>
A_116

> <SourceTag>
A_116

> <Gold.Version>
5.2

> <Gold.Id.Protein>
6HGV|6HGV_protein|mol2

> <Gold.Goldscore.Fitness>
53.6825

> <Gold.Goldscore.Internal.Vdw>
-3.1888

> <Gold.Goldscore.Internal.Torsion>
-2.3007

> <Gold.Goldscore.External.Vdw>
39.3530

> <Gold.Goldscore.Internal.HBond>
0.0000

> <Gold.Goldscore.External.HBond>
3.9982

> <Gold.Goldscore.Internal.Correction>
-1.0633

> <Gold.Goldscore.Hbonds>
donor molecule, donor type, donor heavy atom, donor atom, acceptor molecule, acceptor atom, score
      P1  H  1247  3847       L1    18  0.23
      L1  H    16    47       P1   853  0.43
      L1  H    17    48       P1   853  0.16

> <Gold.Goldscore.Internal.Vdw.Weighted>
-3.1888

> <Gold.Goldscore.Internal.Torsion.Weighted>
-2.3007

> <Gold.Goldscore.External.Vdw.Weighted>
54.1104

> <Gold.Goldscore.Internal.HBond.Weighted>
0.0000

> <Gold.Goldscore.External.HBond.Weighted>
3.9982

> <Gold.Goldscore.Internal.Correction.Weighted>
-1.0633

> <Gold.Protein.RotatedTorsions>
[ 3781 1176 1175 1172 ] final -118.77 input   60.00 | X-H torsion
[ 3847 1247 1246 1244 ] final  146.60 input   60.00 | X-H torsion
[ 4507 1931 1930 1928 ] final   98.42 input   60.00 | X-H torsion
[ 3677 1070 1069 1066 ] final  -94.59 input   60.00 | X-H torsion
[ 3525  925  924  922 ] final -158.97 input   59.99 | X-H torsion
[ 4531 1957 1955 1953 ] final -132.83 input   60.00 | X-H torsion

> <Gold.Protein.ActiveResidues>
 PHE267  PRO268  MET310  ASP335  TRP336  MET339  TYR343  THR360  PRO361  ILE363 
 PRO371  SER374  ILE375  ASN378  PHE381  TYR383  GLN384  PHE387  LEU408  LEU417 
 MET419  LEU428  TYR466  MET469  ASN472  ASP496  VAL498  LEU499  MET503  HIS524 
 TRP525 

> <Gold.Protein.RotatedAtoms>
   -2.4624  -30.1607  -29.1629 H   0  0  0  0  0  0  0  0  0  0  0  0  # atno 3525 bound_to 925 
  -11.8146  -23.7864  -31.3961 H   0  0  0  0  0  0  0  0  0  0  0  0  # atno 3677 bound_to 1070
   -9.4798  -36.3192  -33.7689 H   0  0  0  0  0  0  0  0  0  0  0  0  # atno 3781 bound_to 1176
  -14.3646  -27.8834  -37.9022 H   0  0  0  0  0  0  0  0  0  0  0  0  # atno 3847 bound_to 1247
  -12.4398  -24.1535  -39.0834 H   0  0  0  0  0  0  0  0  0  0  0  0  # atno 4507 bound_to 1931
   -1.2623  -33.0526  -37.0017 H   0  0  0  0  0  0  0  0  0  0  0  0  # atno 4531 bound_to 1957
   -9.8234  -37.0705  -32.3669 LP  0  0  0  0  0  0  0  0  0  0  0  0  # atno 5205 bound_to 1176
  -10.8115  -37.2473  -33.6549 LP  0  0  0  0  0  0  0  0  0  0  0  0  # atno 5206 bound_to 1176
  -15.3362  -28.9275  -37.1187 LP  0  0  0  0  0  0  0  0  0  0  0  0  # atno 5215 bound_to 1247
  -15.8694  -27.4276  -37.4832 LP  0  0  0  0  0  0  0  0  0  0  0  0  # atno 5216 bound_to 1247
  -13.4694  -25.3832  -39.3586 LP  0  0  0  0  0  0  0  0  0  0  0  0  # atno 5217 bound_to 1931
  -13.2900  -24.2005  -40.4702 LP  0  0  0  0  0  0  0  0  0  0  0  0  # atno 5218 bound_to 1931
  -11.2788  -22.3519  -30.8455 LP  0  0  0  0  0  0  0  0  0  0  0  0  # atno 5224 bound_to 1070
  -12.7616  -22.8898  -30.4228 LP  0  0  0  0  0  0  0  0  0  0  0  0  # atno 5225 bound_to 1070

$$$$
A_31|SEH_inhibs_minimized|sdf|25|dock9
  -GOLD-   41821 9423D 1   1.00000     0.00000

 32 34  0  0  0  0  0  0  0  0  1 V2000
  -10.4883  -25.2286  -34.1961 C   0  0  0  0  0  0  0  0  0  0  0  0
  -11.7101  -24.9129  -34.8071 C   0  0  0  0  0  0  0  0  0  0  0  0
   -9.7914  -26.3936  -34.5328 C   0  0  0  0  0  0  0  0  0  0  0  0
  -16.9946  -23.4824  -38.7660 C   0  0  0  0  0  0  0  0  0  0  0  0
  -17.7735  -25.5873  -37.8717 C   0  0  0  0  0  0  0  0  0  0  0  0
  -15.7866  -23.6408  -38.0870 C   0  0  0  0  0  0  0  0  0  0  0  0
  -16.5654  -25.7458  -37.1927 C   0  0  0  0  0  0  0  0  0  0  0  0
  -12.2178  -25.7984  -35.7691 C   0  0  0  0  0  0  0  0  0  0  0  0
  -17.9881  -24.4557  -38.6585 C   0  0  0  0  0  0  0  0  0  0  0  0
  -10.2857  -27.2855  -35.4902 C   0  0  0  0  0  0  0  0  0  0  0  0
  -15.5720  -24.7725  -37.3003 C   0  0  0  0  0  0  0  0  0  0  0  0
  -11.4999  -26.9409  -36.0765 C   0  0  0  0  0  0  0  0  0  0  0  0
  -13.3508  -25.8863  -36.6009 C   0  0  0  0  0  0  0  0  0  0  0  0
  -19.2800  -24.2864  -39.3840 C   0  0  0  0  0  0  0  0  0  0  0  0
   -9.5304  -28.5211  -35.8365 C   0  0  0  0  0  0  0  0  0  0  0  0
  -13.3412  -26.9859  -37.3603 N   0  0  0  0  0  0  0  0  0  0  0  0
  -14.3214  -24.9365  -36.5966 N   0  0  0  0  0  0  0  0  0  0  0  0
  -12.1678  -27.6510  -37.0264 O   0  0  0  0  0  0  0  0  0  0  0  0
  -19.8393  -23.0582  -39.1807 F   0  0  0  0  0  0  0  0  0  0  0  0
  -19.1683  -24.4181  -40.7389 F   0  0  0  0  0  0  0  0  0  0  0  0
  -20.2364  -25.1896  -39.0162 F   0  0  0  0  0  0  0  0  0  0  0  0
   -9.8025  -29.5595  -34.9920 F   0  0  0  0  0  0  0  0  0  0  0  0
   -9.7947  -28.9937  -37.0914 F   0  0  0  0  0  0  0  0  0  0  0  0
   -8.1730  -28.3650  -35.7959 F   0  0  0  0  0  0  0  0  0  0  0  0
  -10.0767  -24.5558  -33.4479 H   0  0  0  0  0  0  0  0  0  0  0  0
  -12.2395  -24.0050  -34.5354 H   0  0  0  0  0  0  0  0  0  0  0  0
   -8.8464  -26.6022  -34.0354 H   0  0  0  0  0  0  0  0  0  0  0  0
  -17.1535  -22.5965  -39.3751 H   0  0  0  0  0  0  0  0  0  0  0  0
  -18.5421  -26.3500  -37.7813 H   0  0  0  0  0  0  0  0  0  0  0  0
  -15.0187  -22.8769  -38.1782 H   0  0  0  0  0  0  0  0  0  0  0  0
  -16.4089  -26.6317  -36.5824 H   0  0  0  0  0  0  0  0  0  0  0  0
  -14.1726  -24.1305  -35.9597 H   0  0  0  0  0  0  0  0  0  0  0  0
  1  2  1  0  0  0  0
  1  3  2  0  0  0  0
  2  8  2  0  0  0  0
  3 10  1  0  0  0  0
  4  6  1  0  0  0  0
  4  9  2  0  0  0  0
  5  7  2  0  0  0  0
  5  9  1  0  0  0  0
  6 11  2  0  0  0  0
  7 11  1  0  0  0  0
  8 12  1  0  0  0  0
  8 13  1  0  0  0  0
  9 14  1  0  0  0  0
 10 12  2  0  0  0  0
 10 15  1  0  0  0  0
 11 17  1  0  0  0  0
 12 18  1  0  0  0  0
 13 16  2  0  0  0  0
 13 17  1  0  0  0  0
 14 19  1  0  0  0  0
 14 20  1  0  0  0  0
 14 21  1  0  0  0  0
 15 22  1  0  0  0  0
 15 23  1  0  0  0  0
 15 24  1  0  0  0  0
 16 18  1  0  0  0  0
  1 25  1  0  0  0  0
  2 26  1  0  0  0  0
  3 27  1  0  0  0  0
  4 28  1  0  0  0  0
  5 29  1  0  0  0  0
  6 30  1  0  0  0  0
  7 31  1  0  0  0  0
 17 32  1  0  0  0  0
M  END
> <Name>
A_31

> <SourceTag>
A_31

> <Gold.Version>
5.2

> <Gold.Id.Protein>
6HGV|6HGV_protein|mol2

> <Gold.Goldscore.Fitness>
54.6308

> <Gold.Goldscore.Internal.Vdw>
1.4390

> <Gold.Goldscore.Internal.Torsion>
-5.3680

> <Gold.Goldscore.External.Vdw>
37.4453

> <Gold.Goldscore.Internal.HBond>
0.0000

> <Gold.Goldscore.External.HBond>
5.7096

> <Gold.Goldscore.Internal.Correction>
-1.3628

> <Gold.Goldscore.Hbonds>
donor molecule, donor type, donor heavy atom, donor atom, acceptor molecule, acceptor atom, score
      P1  H  1247  3847       L1    16  0.19
      L1  H    17    32       P1   853  0.89

> <Gold.Goldscore.Internal.Vdw.Weighted>
1.4390

> <Gold.Goldscore.Internal.Torsion.Weighted>
-5.3680

> <Gold.Goldscore.External.Vdw.Weighted>
51.4873

> <Gold.Goldscore.Internal.HBond.Weighted>
0.0000

> <Gold.Goldscore.External.HBond.Weighted>
5.7096

> <Gold.Goldscore.Internal.Correction.Weighted>
-1.3628

> <Gold.Protein.RotatedTorsions>
[ 3781 1176 1175 1172 ] final   64.52 input   60.00 | X-H torsion
[ 3847 1247 1246 1244 ] final  148.45 input   60.00 | X-H torsion
[ 4507 1931 1930 1928 ] final  -50.30 input   60.00 | X-H torsion
[ 3677 1070 1069 1066 ] final  -91.34 input   60.00 | X-H torsion
[ 3525  925  924  922 ] final  124.25 input   59.99 | X-H torsion
[ 4531 1957 1955 1953 ] final   17.52 input   60.00 | X-H torsion

> <Gold.Protein.ActiveResidues>
 PHE267  PRO268  MET310  ASP335  TRP336  MET339  TYR343  THR360  PRO361  ILE363 
 PRO371  SER374  ILE375  ASN378  PHE381  TYR383  GLN384  PHE387  LEU408  LEU417 
 MET419  LEU428  TYR466  MET469  ASN472  ASP496  VAL498  LEU499  MET503  HIS524 
 TRP525 

> <Gold.Protein.RotatedAtoms>
   -2.0993  -30.2181  -30.2660 H   0  0  0  0  0  0  0  0  0  0  0  0  # atno 3525 bound_to 925 
  -11.8629  -23.8026  -31.3816 H   0  0  0  0  0  0  0  0  0  0  0  0  # atno 3677 bound_to 1070
  -10.5589  -37.4320  -32.7201 H   0  0  0  0  0  0  0  0  0  0  0  0  # atno 3781 bound_to 1176
  -14.3748  -27.8559  -37.9087 H   0  0  0  0  0  0  0  0  0  0  0  0  # atno 3847 bound_to 1247
  -13.6504  -25.2945  -39.7788 H   0  0  0  0  0  0  0  0  0  0  0  0  # atno 4507 bound_to 1931
   -3.0127  -32.7383  -36.6635 H   0  0  0  0  0  0  0  0  0  0  0  0  # atno 4531 bound_to 1957
  -10.2951  -36.7149  -34.1568 LP  0  0  0  0  0  0  0  0  0  0  0  0  # atno 5205 bound_to 1176
   -9.2530  -36.4823  -32.9213 LP  0  0  0  0  0  0  0  0  0  0  0  0  # atno 5206 bound_to 1176
  -15.3081  -28.9354  -37.1267 LP  0  0  0  0  0  0  0  0  0  0  0  0  # atno 5215 bound_to 1247
  -15.8873  -27.4474  -37.4686 LP  0  0  0  0  0  0  0  0  0  0  0  0  # atno 5216 bound_to 1247
  -12.9760  -23.9045  -40.2898 LP  0  0  0  0  0  0  0  0  0  0  0  0  # atno 5217 bound_to 1931
  -12.5642  -24.5301  -38.8386 LP  0  0  0  0  0  0  0  0  0  0  0  0  # atno 5218 bound_to 1931
  -11.2489  -22.3824  -30.8776 LP  0  0  0  0  0  0  0  0  0  0  0  0  # atno 5224 bound_to 1070
  -12.7428  -22.8429  -30.4054 LP  0  0  0  0  0  0  0  0  0  0  0  0  # atno 5225 bound_to 1070

$$$$
A_41|SEH_inhibs_minimized|sdf|29|dock1
  -GOLD-   41821 9493D 1   1.00000     0.00000

 54 56  0  0  0  0  0  0  0  0  1 V2000
  -10.4015  -27.7123  -36.0113 C   0  0  0  0  0  0  0  0  0  0  0  0
   -9.4911  -25.7852  -34.8736 C   0  0  0  0  0  0  0  0  0  0  0  0
  -18.2599  -24.9468  -37.7851 C   0  0  0  0  0  0  0  0  0  0  0  0
  -17.6629  -23.2427  -39.3904 C   0  0  0  0  0  0  0  0  0  0  0  0
  -11.4667  -26.9379  -36.4708 C   0  0  0  0  0  0  0  0  0  0  0  0
  -10.5562  -25.0107  -35.3329 C   0  0  0  0  0  0  0  0  0  0  0  0
  -16.9484  -24.9596  -37.3108 C   0  0  0  0  0  0  0  0  0  0  0  0
  -16.3513  -23.2554  -38.9160 C   0  0  0  0  0  0  0  0  0  0  0  0
   -9.4135  -27.1359  -35.2128 C   0  0  0  0  0  0  0  0  0  0  0  0
  -18.6173  -24.0883  -38.8248 C   0  0  0  0  0  0  0  0  0  0  0  0
  -11.5440  -25.5871  -36.1316 C   0  0  0  0  0  0  0  0  0  0  0  0
  -15.9940  -24.1139  -37.8763 C   0  0  0  0  0  0  0  0  0  0  0  0
   -8.2797  -27.9619  -34.7238 C   0  0  0  0  0  0  0  0  0  0  0  0
  -13.8937  -25.2367  -37.0120 C   0  0  0  0  0  0  0  0  0  0  0  0
   -4.4603  -30.6985  -33.6850 C   0  0  0  0  0  0  0  0  0  0  0  0
   -4.9915  -32.2684  -35.4318 C   0  0  0  0  0  0  0  0  0  0  0  0
   -3.4371  -31.6921  -33.1422 C   0  0  0  0  0  0  0  0  0  0  0  0
   -3.9567  -33.2254  -34.8471 C   0  0  0  0  0  0  0  0  0  0  0  0
   -6.5304  -30.4865  -34.9057 C   0  0  0  0  0  0  0  0  0  0  0  0
   -7.5999  -30.1883  -33.8652 C   0  0  0  0  0  0  0  0  0  0  0  0
  -20.0202  -24.0744  -39.3312 C   0  0  0  0  0  0  0  0  0  0  0  0
   -5.5438  -31.4202  -34.3666 N   0  0  0  0  0  0  0  0  0  0  0  0
  -12.6100  -24.8126  -36.5898 N   0  0  0  0  0  0  0  0  0  0  0  0
  -14.6634  -24.1269  -37.3954 N   0  0  0  0  0  0  0  0  0  0  0  0
   -8.5833  -29.2733  -34.3771 N   0  0  0  0  0  0  0  0  0  0  0  0
   -7.1644  -27.4558  -34.6320 O   0  0  0  0  0  0  0  0  0  0  0  0
  -14.2704  -26.4040  -37.0367 O   0  0  0  0  0  0  0  0  0  0  0  0
   -2.9136  -32.4953  -34.2006 O   0  0  0  0  0  0  0  0  0  0  0  0
  -20.0862  -24.0014  -40.6924 F   0  0  0  0  0  0  0  0  0  0  0  0
  -20.7365  -25.1859  -38.9889 F   0  0  0  0  0  0  0  0  0  0  0  0
  -20.7571  -23.0203  -38.8716 F   0  0  0  0  0  0  0  0  0  0  0  0
  -10.3518  -28.7640  -36.2817 H   0  0  0  0  0  0  0  0  0  0  0  0
   -8.7271  -25.3258  -34.2513 H   0  0  0  0  0  0  0  0  0  0  0  0
  -18.9968  -25.6091  -37.3384 H   0  0  0  0  0  0  0  0  0  0  0  0
  -17.9326  -22.5703  -40.2003 H   0  0  0  0  0  0  0  0  0  0  0  0
  -12.2309  -27.3981  -37.0918 H   0  0  0  0  0  0  0  0  0  0  0  0
  -10.6061  -23.9591  -35.0619 H   0  0  0  0  0  0  0  0  0  0  0  0
  -16.6813  -25.6330  -36.5002 H   0  0  0  0  0  0  0  0  0  0  0  0
  -15.6157  -22.5922  -39.3644 H   0  0  0  0  0  0  0  0  0  0  0  0
   -4.8611  -30.1091  -32.8524 H   0  0  0  0  0  0  0  0  0  0  0  0
   -3.9652  -30.0098  -34.3821 H   0  0  0  0  0  0  0  0  0  0  0  0
   -4.5195  -31.6487  -36.2054 H   0  0  0  0  0  0  0  0  0  0  0  0
   -5.7890  -32.8533  -35.9043 H   0  0  0  0  0  0  0  0  0  0  0  0
   -2.5999  -31.1526  -32.6877 H   0  0  0  0  0  0  0  0  0  0  0  0
   -3.8724  -32.3398  -32.3716 H   0  0  0  0  0  0  0  0  0  0  0  0
   -4.4091  -33.9259  -34.1344 H   0  0  0  0  0  0  0  0  0  0  0  0
   -3.5013  -33.8169  -35.6478 H   0  0  0  0  0  0  0  0  0  0  0  0
   -6.0262  -29.5607  -35.2048 H   0  0  0  0  0  0  0  0  0  0  0  0
   -6.9857  -30.9126  -35.8072 H   0  0  0  0  0  0  0  0  0  0  0  0
   -8.1282  -31.0994  -33.5652 H   0  0  0  0  0  0  0  0  0  0  0  0
   -7.1653  -29.7319  -32.9695 H   0  0  0  0  0  0  0  0  0  0  0  0
  -12.4417  -23.8015  -36.6257 H   0  0  0  0  0  0  0  0  0  0  0  0
  -14.2150  -23.2170  -37.3214 H   0  0  0  0  0  0  0  0  0  0  0  0
   -9.5473  -29.5980  -34.4237 H   0  0  0  0  0  0  0  0  0  0  0  0
  1  5  2  0  0  0  0
  1  9  1  0  0  0  0
  2  6  1  0  0  0  0
  2  9  2  0  0  0  0
  3  7  1  0  0  0  0
  3 10  2  0  0  0  0
  4  8  2  0  0  0  0
  4 10  1  0  0  0  0
  5 11  1  0  0  0  0
  6 11  2  0  0  0  0
  7 12  2  0  0  0  0
  8 12  1  0  0  0  0
  9 13  1  0  0  0  0
 10 21  1  0  0  0  0
 11 23  1  0  0  0  0
 12 24  1  0  0  0  0
 13 25  1  0  0  0  0
 13 26  2  0  0  0  0
 14 23  1  0  0  0  0
 14 24  1  0  0  0  0
 14 27  2  0  0  0  0
 15 17  1  0  0  0  0
 15 22  1  0  0  0  0
 16 18  1  0  0  0  0
 16 22  1  0  0  0  0
 17 28  1  0  0  0  0
 18 28  1  0  0  0  0
 19 20  1  0  0  0  0
 19 22  1  0  0  0  0
 20 25  1  0  0  0  0
 21 29  1  0  0  0  0
 21 30  1  0  0  0  0
 21 31  1  0  0  0  0
  1 32  1  0  0  0  0
  2 33  1  0  0  0  0
  3 34  1  0  0  0  0
  4 35  1  0  0  0  0
  5 36  1  0  0  0  0
  6 37  1  0  0  0  0
  7 38  1  0  0  0  0
  8 39  1  0  0  0  0
 15 40  1  0  0  0  0
 15 41  1  0  0  0  0
 16 42  1  0  0  0  0
 16 43  1  0  0  0  0
 17 44  1  0  0  0  0
 17 45  1  0  0  0  0
 18 46  1  0  0  0  0
 18 47  1  0  0  0  0
 19 48  1  0  0  0  0
 19 49  1  0  0  0  0
 20 50  1  0  0  0  0
 20 51  1  0  0  0  0
 23 52  1  0  0  0  0
 24 53  1  0  0  0  0
 25 54  1  0  0  0  0
M  END
> <Name>
A_41

> <SourceTag>
A_41

> <Gold.Version>
5.2

> <Gold.Id.Protein>
6HGV|6HGV_protein|mol2

> <Gold.Goldscore.Fitness>
78.0165

> <Gold.Goldscore.Internal.Vdw>
-5.4464

> <Gold.Goldscore.Internal.Torsion>
-7.4307

> <Gold.Goldscore.External.Vdw>
55.0638

> <Gold.Goldscore.Internal.HBond>
0.0000

> <Gold.Goldscore.External.HBond>
4.1490

> <Gold.Goldscore.Internal.Correction>
-11.0319

> <Gold.Goldscore.Hbonds>
donor molecule, donor type, donor heavy atom, donor atom, acceptor molecule, acceptor atom, score
      P1  H  1247  3847       L1    27  0.04
      L1  H    23    52       P1   854  0.47
      L1  H    24    53       P1   854  0.21

> <Gold.Goldscore.Internal.Vdw.Weighted>
-5.4464

> <Gold.Goldscore.Internal.Torsion.Weighted>
-7.4307

> <Gold.Goldscore.External.Vdw.Weighted>
75.7127

> <Gold.Goldscore.Internal.HBond.Weighted>
0.0000

> <Gold.Goldscore.External.HBond.Weighted>
4.1490

> <Gold.Goldscore.Internal.Correction.Weighted>
-11.0319

> <Gold.Protein.RotatedTorsions>
[ 3781 1176 1175 1172 ] final  119.25 input   60.00 | X-H torsion
[ 3847 1247 1246 1244 ] final  169.07 input   60.00 | X-H torsion
[ 4507 1931 1930 1928 ] final  -68.95 input   60.00 | X-H torsion
[ 3677 1070 1069 1066 ] final -120.19 input   60.00 | X-H torsion
[ 3525  925  924  922 ] final    4.74 input   59.99 | X-H torsion
[ 4531 1957 1955 1953 ] final  -69.85 input   60.00 | X-H torsion

> <Gold.Protein.ActiveResidues>
 PHE267  PRO268  MET310  ASP335  TRP336  MET339  TYR343  THR360  PRO361  ILE363 
 PRO371  SER374  ILE375  ASN378  PHE381  TYR383  GLN384  PHE387  LEU408  LEU417 
 MET419  LEU428  TYR466  MET469  ASN472  ASP496  VAL498  LEU499  MET503  HIS524 
 TRP525 

> <Gold.Protein.RotatedAtoms>
   -3.5518  -29.5600  -30.5369 H   0  0  0  0  0  0  0  0  0  0  0  0  # atno 3525 bound_to 925 
  -11.4606  -23.5771  -31.4510 H   0  0  0  0  0  0  0  0  0  0  0  0  # atno 3677 bound_to 1070
   -9.8501  -37.0894  -32.3722 H   0  0  0  0  0  0  0  0  0  0  0  0  # atno 3781 bound_to 1176
  -14.5439  -27.5697  -37.9518 H   0  0  0  0  0  0  0  0  0  0  0  0  # atno 3847 bound_to 1247
  -13.6951  -25.1422  -40.0374 H   0  0  0  0  0  0  0  0  0  0  0  0  # atno 4507 bound_to 1931
   -1.8288  -32.2646  -36.8804 H   0  0  0  0  0  0  0  0  0  0  0  0  # atno 4531 bound_to 1957
  -10.8042  -37.2320  -33.6827 LP  0  0  0  0  0  0  0  0  0  0  0  0  # atno 5205 bound_to 1176
   -9.4578  -36.3101  -33.7458 LP  0  0  0  0  0  0  0  0  0  0  0  0  # atno 5206 bound_to 1176
  -14.9915  -28.9631  -37.2404 LP  0  0  0  0  0  0  0  0  0  0  0  0  # atno 5215 bound_to 1247
  -16.0336  -27.7079  -37.3115 LP  0  0  0  0  0  0  0  0  0  0  0  0  # atno 5216 bound_to 1247
  -12.7790  -23.7980  -40.0818 LP  0  0  0  0  0  0  0  0  0  0  0  0  # atno 5217 bound_to 1931
  -12.7162  -24.7899  -38.7862 LP  0  0  0  0  0  0  0  0  0  0  0  0  # atno 5218 bound_to 1931
  -11.5811  -22.1918  -30.6057 LP  0  0  0  0  0  0  0  0  0  0  0  0  # atno 5224 bound_to 1070
  -12.8157  -23.2606  -30.6074 LP  0  0  0  0  0  0  0  0  0  0  0  0  # atno 5225 bound_to 1070

$$$$
A_95|SEH_inhibs_minimized|sdf|55|dock8
  -GOLD-   4182110453D 1   1.00000     0.00000

 41 43  0  0  0  0  0  0  0  0  1 V2000
  -19.9881  -24.0496  -39.7544 C   0  0  0  0  0  0  0  0  0  0  0  0
  -21.0112  -23.9575  -38.8156 C   0  0  0  0  0  0  0  0  0  0  0  0
  -18.6985  -24.3966  -39.3505 C   0  0  0  0  0  0  0  0  0  0  0  0
  -20.7487  -24.2121  -37.4692 C   0  0  0  0  0  0  0  0  0  0  0  0
  -17.1242  -25.0069  -37.5753 C   0  0  0  0  0  0  0  0  0  0  0  0
  -19.1744  -24.8222  -35.6937 C   0  0  0  0  0  0  0  0  0  0  0  0
  -18.4162  -24.6563  -37.9996 C   0  0  0  0  0  0  0  0  0  0  0  0
  -19.4567  -24.5626  -37.0448 C   0  0  0  0  0  0  0  0  0  0  0  0
  -16.8617  -25.2613  -36.2289 C   0  0  0  0  0  0  0  0  0  0  0  0
  -17.8848  -25.1692  -35.2899 C   0  0  0  0  0  0  0  0  0  0  0  0
  -14.3438  -25.2347  -36.4302 C   0  0  0  0  0  0  0  0  0  0  0  0
  -10.2296  -26.8448  -33.9875 C   0  0  0  0  0  0  0  0  0  0  0  0
  -10.9337  -25.5114  -33.7505 C   0  0  0  0  0  0  0  0  0  0  0  0
  -10.9516  -27.6926  -35.0314 C   0  0  0  0  0  0  0  0  0  0  0  0
  -11.1431  -24.7455  -35.0576 C   0  0  0  0  0  0  0  0  0  0  0  0
  -11.1606  -26.9216  -36.3356 C   0  0  0  0  0  0  0  0  0  0  0  0
  -11.8678  -25.5762  -36.1250 C   0  0  0  0  0  0  0  0  0  0  0  0
  -15.5499  -25.6130  -35.8337 N   0  0  0  0  0  0  0  0  0  0  0  0
  -13.2637  -25.7924  -35.7379 N   0  0  0  0  0  0  0  0  0  0  0  0
  -14.2089  -24.5179  -37.4191 O   0  0  0  0  0  0  0  0  0  0  0  0
  -17.6485  -25.4144  -33.9699 O   0  0  0  0  0  0  0  0  0  0  0  0
  -20.1933  -23.8516  -40.8024 H   0  0  0  0  0  0  0  0  0  0  0  0
  -22.0149  -23.6879  -39.1308 H   0  0  0  0  0  0  0  0  0  0  0  0
  -17.9138  -24.4617  -40.1017 H   0  0  0  0  0  0  0  0  0  0  0  0
  -21.5637  -24.1343  -36.7525 H   0  0  0  0  0  0  0  0  0  0  0  0
  -16.3163  -25.0815  -38.3016 H   0  0  0  0  0  0  0  0  0  0  0  0
  -19.9639  -24.7539  -34.9476 H   0  0  0  0  0  0  0  0  0  0  0  0
   -9.1969  -26.6641  -34.3095 H   0  0  0  0  0  0  0  0  0  0  0  0
  -10.1748  -27.4004  -33.0420 H   0  0  0  0  0  0  0  0  0  0  0  0
  -11.9014  -25.6858  -33.2677 H   0  0  0  0  0  0  0  0  0  0  0  0
  -10.3374  -24.9002  -33.0626 H   0  0  0  0  0  0  0  0  0  0  0  0
  -10.3681  -28.5986  -35.2338 H   0  0  0  0  0  0  0  0  0  0  0  0
  -11.9206  -28.0169  -34.6369 H   0  0  0  0  0  0  0  0  0  0  0  0
  -11.7136  -23.8229  -34.8520 H   0  0  0  0  0  0  0  0  0  0  0  0
  -10.1658  -24.4097  -35.4435 H   0  0  0  0  0  0  0  0  0  0  0  0
  -10.1845  -26.7596  -36.8233 H   0  0  0  0  0  0  0  0  0  0  0  0
  -11.7432  -27.5435  -37.0375 H   0  0  0  0  0  0  0  0  0  0  0  0
  -11.8970  -25.0257  -37.0619 H   0  0  0  0  0  0  0  0  0  0  0  0
  -15.4811  -26.2132  -35.0157 H   0  0  0  0  0  0  0  0  0  0  0  0
  -13.4565  -26.3747  -34.9285 H   0  0  0  0  0  0  0  0  0  0  0  0
  -18.4812  -25.4000  -33.4730 H   0  0  0  0  0  0  0  0  0  0  0  0
  1  2  1  0  0  0  0
  1  3  2  0  0  0  0
  2  4  2  0  0  0  0
  3  7  1  0  0  0  0
  4  8  1  0  0  0  0
  5  7  1  0  0  0  0
  5  9  2  0  0  0  0
  6  8  1  0  0  0  0
  6 10  2  0  0  0  0
  7  8  2  0  0  0  0
  9 10  1  0  0  0  0
  9 18  1  0  0  0  0
 10 21  1  0  0  0  0
 11 18  1  0  0  0  0
 11 19  1  0  0  0  0
 11 20  2  0  0  0  0
 12 13  1  0  0  0  0
 12 14  1  0  0  0  0
 13 15  1  0  0  0  0
 14 16  1  0  0  0  0
 15 17  1  0  0  0  0
 16 17  1  0  0  0  0
 17 19  1  0  0  0  0
  1 22  1  0  0  0  0
  2 23  1  0  0  0  0
  3 24  1  0  0  0  0
  4 25  1  0  0  0  0
  5 26  1  0  0  0  0
  6 27  1  0  0  0  0
 12 28  1  0  0  0  0
 12 29  1  0  0  0  0
 13 30  1  0  0  0  0
 13 31  1  0  0  0  0
 14 32  1  0  0  0  0
 14 33  1  0  0  0  0
 15 34  1  0  0  0  0
 15 35  1  0  0  0  0
 16 36  1  0  0  0  0
 16 37  1  0  0  0  0
 17 38  1  0  0  0  0
 18 39  1  0  0  0  0
 19 40  1  0  0  0  0
 21 41  1  0  0  0  0
M  END
> <Name>
A_95

> <SourceTag>
A_95

> <Gold.Version>
5.2

> <Gold.Id.Protein>
6HGV|6HGV_protein|mol2

> <Gold.Goldscore.Fitness>
68.7087

> <Gold.Goldscore.Internal.Vdw>
-4.2860

> <Gold.Goldscore.Internal.Torsion>
-2.1728

> <Gold.Goldscore.External.Vdw>
46.3083

> <Gold.Goldscore.Internal.HBond>
0.0000

> <Gold.Goldscore.External.HBond>
6.3349

> <Gold.Goldscore.Internal.Correction>
-5.1587

> <Gold.Goldscore.Hbonds>
donor molecule, donor type, donor heavy atom, donor atom, acceptor molecule, acceptor atom, score
      P1  H  1247  3847       L1    20  0.06
      P1  H  1931  4507       L1    20  0.04
      P1  H  2205  4797       L1    21  0.08
      L1  H    21    41       P1  2185  1.00

> <Gold.Goldscore.Internal.Vdw.Weighted>
-4.2860

> <Gold.Goldscore.Internal.Torsion.Weighted>
-2.1728

> <Gold.Goldscore.External.Vdw.Weighted>
63.6740

> <Gold.Goldscore.Internal.HBond.Weighted>
0.0000

> <Gold.Goldscore.External.HBond.Weighted>
6.3349

> <Gold.Goldscore.Internal.Correction.Weighted>
-5.1587

> <Gold.Protein.RotatedTorsions>
[ 3781 1176 1175 1172 ] final  136.76 input   60.00 | X-H torsion
[ 3847 1247 1246 1244 ] final -170.98 input   60.00 | X-H torsion
[ 4507 1931 1930 1928 ] final   11.06 input   60.00 | X-H torsion
[ 3677 1070 1069 1066 ] final  -88.77 input   60.00 | X-H torsion
[ 3525  925  924  922 ] final   99.20 input   59.99 | X-H torsion
[ 4531 1957 1955 1953 ] final   63.70 input   60.00 | X-H torsion

> <Gold.Protein.ActiveResidues>
 PHE267  PRO268  MET310  ASP335  TRP336  MET339  TYR343  THR360  PRO361  ILE363 
 PRO371  SER374  ILE375  ASN378  PHE381  TYR383  GLN384  PHE387  LEU408  LEU417 
 MET419  LEU428  TYR466  MET469  ASN472  ASP496  VAL498  LEU499  MET503  HIS524 
 TRP525 

> <Gold.Protein.RotatedAtoms>
   -2.2911  -30.1034  -30.6049 H   0  0  0  0  0  0  0  0  0  0  0  0  # atno 3525 bound_to 925 
  -11.9015  -23.8137  -31.3689 H   0  0  0  0  0  0  0  0  0  0  0  0  # atno 3677 bound_to 1070
   -9.6265  -36.9206  -32.4244 H   0  0  0  0  0  0  0  0  0  0  0  0  # atno 3781 bound_to 1176
  -14.7865  -27.3548  -37.9388 H   0  0  0  0  0  0  0  0  0  0  0  0  # atno 3847 bound_to 1247
  -13.1378  -25.2366  -38.9747 H   0  0  0  0  0  0  0  0  0  0  0  0  # atno 4507 bound_to 1931
   -3.0369  -33.4721  -36.6716 H   0  0  0  0  0  0  0  0  0  0  0  0  # atno 4531 bound_to 1957
  -10.8368  -37.3509  -33.4235 LP  0  0  0  0  0  0  0  0  0  0  0  0  # atno 5205 bound_to 1176
   -9.6504  -36.3613  -33.9524 LP  0  0  0  0  0  0  0  0  0  0  0  0  # atno 5206 bound_to 1176
  -14.7087  -28.8820  -37.3824 LP  0  0  0  0  0  0  0  0  0  0  0  0  # atno 5215 bound_to 1247
  -16.0720  -28.0055  -37.1826 LP  0  0  0  0  0  0  0  0  0  0  0  0  # atno 5216 bound_to 1247
  -13.5759  -24.6442  -40.4256 LP  0  0  0  0  0  0  0  0  0  0  0  0  # atno 5217 bound_to 1931
  -12.4805  -23.8486  -39.5126 LP  0  0  0  0  0  0  0  0  0  0  0  0  # atno 5218 bound_to 1931
  -11.2268  -22.4080  -30.9030 LP  0  0  0  0  0  0  0  0  0  0  0  0  # atno 5224 bound_to 1070
  -12.7261  -22.8061  -30.3927 LP  0  0  0  0  0  0  0  0  0  0  0  0  # atno 5225 bound_to 1070

$$$$
A_22|SEH_inhibs_minimized|sdf|21|dock3
  -GOLD-   41821 9353D 1   1.00000     0.00000

 61 66  0  0  0  0  0  0  0  0  1 V2000
  -22.0757  -23.4385  -37.9436 C   0  0  0  0  0  0  0  0  0  0  0  0
  -21.4574  -23.7909  -36.7439 C   0  0  0  0  0  0  0  0  0  0  0  0
  -21.4207  -23.6554  -39.1559 C   0  0  0  0  0  0  0  0  0  0  0  0
   -9.2292  -30.2177  -34.7757 C   0  0  0  0  0  0  0  0  0  0  0  0
  -20.1840  -24.3602  -36.7567 C   0  0  0  0  0  0  0  0  0  0  0  0
  -20.1473  -24.2247  -39.1685 C   0  0  0  0  0  0  0  0  0  0  0  0
  -10.3718  -29.4266  -34.6535 C   0  0  0  0  0  0  0  0  0  0  0  0
   -6.7759  -31.5381  -35.7210 C   0  0  0  0  0  0  0  0  0  0  0  0
   -5.6465  -30.1685  -34.0981 C   0  0  0  0  0  0  0  0  0  0  0  0
   -7.8376  -28.2564  -34.5292 C   0  0  0  0  0  0  0  0  0  0  0  0
   -5.6186  -32.2950  -35.8080 C   0  0  0  0  0  0  0  0  0  0  0  0
   -4.5396  -30.9867  -34.2576 C   0  0  0  0  0  0  0  0  0  0  0  0
   -7.9646  -29.6327  -34.7183 C   0  0  0  0  0  0  0  0  0  0  0  0
   -6.7819  -30.4563  -34.8475 C   0  0  0  0  0  0  0  0  0  0  0  0
   -8.9847  -27.4681  -34.4040 C   0  0  0  0  0  0  0  0  0  0  0  0
  -19.5291  -24.5772  -37.9690 C   0  0  0  0  0  0  0  0  0  0  0  0
  -10.2521  -28.0464  -34.4809 C   0  0  0  0  0  0  0  0  0  0  0  0
   -8.8724  -26.0202  -34.1540 C   0  0  0  0  0  0  0  0  0  0  0  0
  -14.6275  -25.0398  -37.2565 C   0  0  0  0  0  0  0  0  0  0  0  0
  -10.1640  -25.2981  -33.8779 C   0  0  0  0  0  0  0  0  0  0  0  0
  -11.2304  -25.6705  -36.1738 C   0  0  0  0  0  0  0  0  0  0  0  0
  -12.6497  -25.3083  -34.1478 C   0  0  0  0  0  0  0  0  0  0  0  0
  -17.1653  -24.7146  -39.0020 C   0  0  0  0  0  0  0  0  0  0  0  0
  -12.4614  -26.1841  -36.9189 C   0  0  0  0  0  0  0  0  0  0  0  0
  -13.8732  -25.8025  -34.9266 C   0  0  0  0  0  0  0  0  0  0  0  0
  -18.1754  -25.1823  -37.9822 C   0  0  1  0  0  0  0  0  0  0  0  0
  -16.9851  -24.3448  -37.5593 C   0  0  1  0  0  0  0  0  0  0  0  0
  -11.3285  -25.9310  -34.6518 C   0  0  0  0  0  0  0  0  0  0  0  0
   -4.4963  -32.0463  -35.0962 N   0  0  0  0  0  0  0  0  0  0  0  0
  -13.6980  -25.6188  -36.3742 N   0  0  0  0  0  0  0  0  0  0  0  0
  -15.9239  -24.9114  -36.7707 N   0  0  0  0  0  0  0  0  0  0  0  0
   -7.7832  -25.4606  -34.1131 O   0  0  0  0  0  0  0  0  0  0  0  0
  -14.3279  -24.6697  -38.3970 O   0  0  0  0  0  0  0  0  0  0  0  0
  -11.4206  -27.3426  -34.3827 O   0  0  0  0  0  0  0  0  0  0  0  0
  -23.0670  -22.9956  -37.9337 H   0  0  0  0  0  0  0  0  0  0  0  0
  -21.9670  -23.6215  -35.8000 H   0  0  0  0  0  0  0  0  0  0  0  0
  -21.9023  -23.3818  -40.0899 H   0  0  0  0  0  0  0  0  0  0  0  0
   -9.3415  -31.2901  -34.9171 H   0  0  0  0  0  0  0  0  0  0  0  0
  -19.7107  -24.6310  -35.8166 H   0  0  0  0  0  0  0  0  0  0  0  0
  -19.6455  -24.3897  -40.1184 H   0  0  0  0  0  0  0  0  0  0  0  0
  -11.3531  -29.8915  -34.7048 H   0  0  0  0  0  0  0  0  0  0  0  0
   -7.6422  -31.7927  -36.3231 H   0  0  0  0  0  0  0  0  0  0  0  0
   -5.6131  -29.3328  -33.4067 H   0  0  0  0  0  0  0  0  0  0  0  0
   -6.8493  -27.8060  -34.4716 H   0  0  0  0  0  0  0  0  0  0  0  0
   -5.5625  -33.1485  -36.4758 H   0  0  0  0  0  0  0  0  0  0  0  0
   -3.6292  -30.8046  -33.6962 H   0  0  0  0  0  0  0  0  0  0  0  0
  -10.3321  -25.3598  -32.7955 H   0  0  0  0  0  0  0  0  0  0  0  0
  -10.0467  -24.2435  -34.1515 H   0  0  0  0  0  0  0  0  0  0  0  0
  -10.3476  -26.1561  -36.6042 H   0  0  0  0  0  0  0  0  0  0  0  0
  -11.1261  -24.5931  -36.3556 H   0  0  0  0  0  0  0  0  0  0  0  0
  -12.5964  -24.2146  -34.2306 H   0  0  0  0  0  0  0  0  0  0  0  0
  -12.7996  -25.5513  -33.0883 H   0  0  0  0  0  0  0  0  0  0  0  0
  -16.5053  -25.4602  -39.4307 H   0  0  0  0  0  0  0  0  0  0  0  0
  -17.4447  -23.9269  -39.6920 H   0  0  0  0  0  0  0  0  0  0  0  0
  -12.3624  -25.9530  -37.9842 H   0  0  0  0  0  0  0  0  0  0  0  0
  -12.5393  -27.2747  -36.8358 H   0  0  0  0  0  0  0  0  0  0  0  0
  -14.0414  -26.8715  -34.7532 H   0  0  0  0  0  0  0  0  0  0  0  0
  -14.7446  -25.2689  -34.5463 H   0  0  0  0  0  0  0  0  0  0  0  0
  -18.1359  -26.2395  -37.7337 H   0  0  0  0  0  0  0  0  0  0  0  0
  -17.1675  -23.3064  -37.3021 H   0  0  0  0  0  0  0  0  0  0  0  0
  -16.1278  -25.2270  -35.8305 H   0  0  0  0  0  0  0  0  0  0  0  0
  1  2  2  0  0  0  0
  1  3  1  0  0  0  0
  2  5  1  0  0  0  0
  3  6  2  0  0  0  0
  4  7  2  0  0  0  0
  4 13  1  0  0  0  0
  5 16  2  0  0  0  0
  6 16  1  0  0  0  0
  7 17  1  0  0  0  0
  8 11  1  0  0  0  0
  8 14  2  0  0  0  0
  9 12  2  0  0  0  0
  9 14  1  0  0  0  0
 10 13  2  0  0  0  0
 10 15  1  0  0  0  0
 11 29  2  0  0  0  0
 12 29  1  0  0  0  0
 13 14  1  0  0  0  0
 15 17  2  0  0  0  0
 15 18  1  0  0  0  0
 16 26  1  0  0  0  0
 17 34  1  0  0  0  0
 18 20  1  0  0  0  0
 18 32  2  0  0  0  0
 19 30  1  0  0  0  0
 19 31  1  0  0  0  0
 19 33  2  0  0  0  0
 20 28  1  0  0  0  0
 21 24  1  0  0  0  0
 21 28  1  0  0  0  0
 22 25  1  0  0  0  0
 22 28  1  0  0  0  0
 23 26  1  0  0  0  0
 23 27  1  0  0  0  0
 24 30  1  0  0  0  0
 25 30  1  0  0  0  0
 26 27  1  0  0  0  0
 27 31  1  0  0  0  0
 28 34  1  0  0  0  0
  1 35  1  0  0  0  0
  2 36  1  0  0  0  0
  3 37  1  0  0  0  0
  4 38  1  0  0  0  0
  5 39  1  0  0  0  0
  6 40  1  0  0  0  0
  7 41  1  0  0  0  0
  8 42  1  0  0  0  0
  9 43  1  0  0  0  0
 10 44  1  0  0  0  0
 11 45  1  0  0  0  0
 12 46  1  0  0  0  0
 20 47  1  0  0  0  0
 20 48  1  0  0  0  0
 21 49  1  0  0  0  0
 21 50  1  0  0  0  0
 22 51  1  0  0  0  0
 22 52  1  0  0  0  0
 23 53  1  0  0  0  0
 23 54  1  0  0  0  0
 24 55  1  0  0  0  0
 24 56  1  0  0  0  0
 25 57  1  0  0  0  0
 25 58  1  0  0  0  0
 26 59  1  0  0  0  0
 27 60  1  0  0  0  0
 31 61  1  0  0  0  0
M  END
> <Name>
A_22

> <SourceTag>
A_22

> <Gold.Version>
5.2

> <Gold.Id.Protein>
6HGV|6HGV_protein|mol2

> <Gold.Goldscore.Fitness>
71.5803

> <Gold.Goldscore.Internal.Vdw>
-10.8874

> <Gold.Goldscore.Internal.Torsion>
-4.1332

> <Gold.Goldscore.External.Vdw>
53.3092

> <Gold.Goldscore.Internal.HBond>
0.0000

> <Gold.Goldscore.External.HBond>
1.4882

> <Gold.Goldscore.Internal.Correction>
-11.8126

> <Gold.Goldscore.Hbonds>
donor molecule, donor type, donor heavy atom, donor atom, acceptor molecule, acceptor atom, score
      P1  H  1957  4531       L1    29  0.74

> <Gold.Goldscore.Internal.Vdw.Weighted>
-10.8874

> <Gold.Goldscore.Internal.Torsion.Weighted>
-4.1332

> <Gold.Goldscore.External.Vdw.Weighted>
73.3001

> <Gold.Goldscore.Internal.HBond.Weighted>
0.0000

> <Gold.Goldscore.External.HBond.Weighted>
1.4882

> <Gold.Goldscore.Internal.Correction.Weighted>
-11.8126

> <Gold.Protein.RotatedTorsions>
[ 3781 1176 1175 1172 ] final   96.80 input   60.00 | X-H torsion
[ 3847 1247 1246 1244 ] final  -76.49 input   60.00 | X-H torsion
[ 4507 1931 1930 1928 ] final  136.58 input   60.00 | X-H torsion
[ 3677 1070 1069 1066 ] final  -85.84 input   60.00 | X-H torsion
[ 3525  925  924  922 ] final   61.74 input   59.99 | X-H torsion
[ 4531 1957 1955 1953 ] final   17.34 input   60.00 | X-H torsion

> <Gold.Protein.ActiveResidues>
 PHE267  PRO268  MET310  ASP335  TRP336  MET339  TYR343  THR360  PRO361  ILE363 
 PRO371  SER374  ILE375  ASN378  PHE381  TYR383  GLN384  PHE387  LEU408  LEU417 
 MET419  LEU428  TYR466  MET469  ASN472  ASP496  VAL498  LEU499  MET503  HIS524 
 TRP525 

> <Gold.Protein.RotatedAtoms>
   -2.7794  -29.8668  -30.8643 H   0  0  0  0  0  0  0  0  0  0  0  0  # atno 3525 bound_to 925 
  -11.9454  -23.8243  -31.3534 H   0  0  0  0  0  0  0  0  0  0  0  0  # atno 3677 bound_to 1070
  -10.1591  -37.2754  -32.4261 H   0  0  0  0  0  0  0  0  0  0  0  0  # atno 3781 bound_to 1176
  -15.9993  -27.6353  -37.3555 H   0  0  0  0  0  0  0  0  0  0  0  0  # atno 3847 bound_to 1247
  -12.5096  -23.8254  -39.5954 H   0  0  0  0  0  0  0  0  0  0  0  0  # atno 4507 bound_to 1931
   -3.0114  -32.7356  -36.6637 H   0  0  0  0  0  0  0  0  0  0  0  0  # atno 4531 bound_to 1957
  -10.6595  -37.0333  -33.9555 LP  0  0  0  0  0  0  0  0  0  0  0  0  # atno 5205 bound_to 1176
   -9.2913  -36.3216  -33.4187 LP  0  0  0  0  0  0  0  0  0  0  0  0  # atno 5206 bound_to 1176
  -14.4833  -27.6380  -37.9467 LP  0  0  0  0  0  0  0  0  0  0  0  0  # atno 5215 bound_to 1247
  -15.0761  -28.9669  -37.2057 LP  0  0  0  0  0  0  0  0  0  0  0  0  # atno 5216 bound_to 1247
  -13.0789  -25.1928  -38.9214 LP  0  0  0  0  0  0  0  0  0  0  0  0  # atno 5217 bound_to 1931
  -13.6102  -24.7212  -40.3918 LP  0  0  0  0  0  0  0  0  0  0  0  0  # atno 5218 bound_to 1931
  -11.2035  -22.4386  -30.9319 LP  0  0  0  0  0  0  0  0  0  0  0  0  # atno 5224 bound_to 1070
  -12.7052  -22.7649  -30.3795 LP  0  0  0  0  0  0  0  0  0  0  0  0  # atno 5225 bound_to 1070

$$$$
A_19|SEH_inhibs_minimized|sdf|18|dock3
  -GOLD-   41821 9263D 1   1.00000     0.00000

 63 66  0  0  0  0  0  0  0  0  1 V2000
  -11.5398  -26.9058  -36.3027 C   0  0  0  0  0  0  0  0  0  0  0  0
  -10.8380  -25.0684  -34.8998 C   0  0  0  0  0  0  0  0  0  0  0  0
  -10.3537  -27.5801  -36.0131 C   0  0  0  0  0  0  0  0  0  0  0  0
   -9.6518  -25.7426  -34.6100 C   0  0  0  0  0  0  0  0  0  0  0  0
  -11.7821  -25.6500  -35.7460 C   0  0  0  0  0  0  0  0  0  0  0  0
   -9.4097  -26.9985  -35.1667 C   0  0  0  0  0  0  0  0  0  0  0  0
  -13.8436  -25.1681  -37.1245 C   0  0  0  0  0  0  0  0  0  0  0  0
  -17.5606  -22.8112  -40.0839 C   0  0  0  0  0  0  0  0  0  0  0  0
  -18.8433  -24.5128  -38.7614 C   0  0  0  0  0  0  0  0  0  0  0  0
  -17.2252  -25.2569  -40.5270 C   0  0  0  0  0  0  0  0  0  0  0  0
  -17.0297  -23.1765  -37.6606 C   0  0  0  0  0  0  0  0  0  0  0  0
  -15.4099  -23.9212  -39.4280 C   0  0  0  0  0  0  0  0  0  0  0  0
  -16.6943  -25.6259  -38.1041 C   0  0  0  0  0  0  0  0  0  0  0  0
  -18.1587  -23.1366  -38.7047 C   0  0  0  0  0  0  0  0  0  0  0  0
  -16.5324  -23.8844  -40.4795 C   0  0  0  0  0  0  0  0  0  0  0  0
  -17.8219  -25.5952  -39.1503 C   0  0  0  0  0  0  0  0  0  0  0  0
  -15.9883  -24.2545  -38.0349 C   0  0  0  0  0  0  0  0  0  0  0  0
   -8.4416  -34.7886  -35.3879 C   0  0  0  0  0  0  0  0  0  0  0  0
   -7.5762  -33.5581  -35.5574 C   0  0  0  0  0  0  0  0  0  0  0  0
   -8.1343  -28.9967  -35.3595 C   0  0  0  0  0  0  0  0  0  0  0  0
   -6.8447  -29.5968  -34.8335 C   0  0  0  0  0  0  0  0  0  0  0  0
   -5.3305  -32.8655  -35.5640 C   0  0  0  0  0  0  0  0  0  0  0  0
   -5.5953  -31.5868  -34.7928 C   0  0  0  0  0  0  0  0  0  0  0  0
  -12.9851  -24.9667  -36.0399 N   0  0  0  0  0  0  0  0  0  0  0  0
  -14.9270  -24.2877  -37.0526 N   0  0  0  0  0  0  0  0  0  0  0  0
  -13.7011  -25.9882  -38.0281 O   0  0  0  0  0  0  0  0  0  0  0  0
   -8.2520  -27.6564  -34.8843 O   0  0  0  0  0  0  0  0  0  0  0  0
   -6.2525  -33.8624  -35.1405 O   0  0  0  0  0  0  0  0  0  0  0  0
   -6.6583  -30.8805  -35.4171 O   0  0  0  0  0  0  0  0  0  0  0  0
  -12.2685  -27.3687  -36.9634 H   0  0  0  0  0  0  0  0  0  0  0  0
  -11.0162  -24.0905  -34.4598 H   0  0  0  0  0  0  0  0  0  0  0  0
  -10.1705  -28.5582  -36.4495 H   0  0  0  0  0  0  0  0  0  0  0  0
   -8.9202  -25.2848  -33.9497 H   0  0  0  0  0  0  0  0  0  0  0  0
  -18.3583  -22.7615  -40.8351 H   0  0  0  0  0  0  0  0  0  0  0  0
  -17.0823  -21.8243  -40.0614 H   0  0  0  0  0  0  0  0  0  0  0  0
  -19.2882  -24.7506  -37.7874 H   0  0  0  0  0  0  0  0  0  0  0  0
  -19.6634  -24.4930  -39.4899 H   0  0  0  0  0  0  0  0  0  0  0  0
  -18.0168  -25.2508  -41.2865 H   0  0  0  0  0  0  0  0  0  0  0  0
  -16.5054  -26.0295  -40.8238 H   0  0  0  0  0  0  0  0  0  0  0  0
  -16.5503  -22.1910  -37.5938 H   0  0  0  0  0  0  0  0  0  0  0  0
  -17.4484  -23.3823  -36.6666 H   0  0  0  0  0  0  0  0  0  0  0  0
  -14.6560  -24.6662  -39.7141 H   0  0  0  0  0  0  0  0  0  0  0  0
  -14.8913  -22.9537  -39.4024 H   0  0  0  0  0  0  0  0  0  0  0  0
  -17.1050  -25.8917  -37.1213 H   0  0  0  0  0  0  0  0  0  0  0  0
  -15.9727  -26.4134  -38.3589 H   0  0  0  0  0  0  0  0  0  0  0  0
  -18.8912  -22.3700  -38.4285 H   0  0  0  0  0  0  0  0  0  0  0  0
  -16.1109  -23.6483  -41.4628 H   0  0  0  0  0  0  0  0  0  0  0  0
  -18.3156  -26.5725  -39.1910 H   0  0  0  0  0  0  0  0  0  0  0  0
   -8.1046  -35.5960  -36.0438 H   0  0  0  0  0  0  0  0  0  0  0  0
   -8.4139  -35.1402  -34.3513 H   0  0  0  0  0  0  0  0  0  0  0  0
   -9.4874  -34.5595  -35.6183 H   0  0  0  0  0  0  0  0  0  0  0  0
   -7.9572  -32.7339  -34.9471 H   0  0  0  0  0  0  0  0  0  0  0  0
   -7.5527  -33.2467  -36.6059 H   0  0  0  0  0  0  0  0  0  0  0  0
   -9.0039  -29.5605  -35.0080 H   0  0  0  0  0  0  0  0  0  0  0  0
   -8.1275  -28.9732  -36.4531 H   0  0  0  0  0  0  0  0  0  0  0  0
   -6.8807  -29.7185  -33.7464 H   0  0  0  0  0  0  0  0  0  0  0  0
   -5.9912  -28.9693  -35.1062 H   0  0  0  0  0  0  0  0  0  0  0  0
   -4.3180  -33.2362  -35.3773 H   0  0  0  0  0  0  0  0  0  0  0  0
   -5.4714  -32.7019  -36.6364 H   0  0  0  0  0  0  0  0  0  0  0  0
   -4.7129  -30.9393  -34.7871 H   0  0  0  0  0  0  0  0  0  0  0  0
   -5.8922  -31.8142  -33.7648 H   0  0  0  0  0  0  0  0  0  0  0  0
  -13.2587  -24.2408  -35.3824 H   0  0  0  0  0  0  0  0  0  0  0  0
  -14.9710  -23.6402  -36.2730 H   0  0  0  0  0  0  0  0  0  0  0  0
  1  3  1  0  0  0  0
  1  5  2  0  0  0  0
  2  4  2  0  0  0  0
  2  5  1  0  0  0  0
  3  6  2  0  0  0  0
  4  6  1  0  0  0  0
  5 24  1  0  0  0  0
  6 27  1  0  0  0  0
  7 24  1  0  0  0  0
  7 25  1  0  0  0  0
  7 26  2  0  0  0  0
  8 14  1  0  0  0  0
  8 15  1  0  0  0  0
  9 14  1  0  0  0  0
  9 16  1  0  0  0  0
 10 15  1  0  0  0  0
 10 16  1  0  0  0  0
 11 14  1  0  0  0  0
 11 17  1  0  0  0  0
 12 15  1  0  0  0  0
 12 17  1  0  0  0  0
 13 16  1  0  0  0  0
 13 17  1  0  0  0  0
 17 25  1  0  0  0  0
 18 19  1  0  0  0  0
 19 28  1  0  0  0  0
 20 21  1  0  0  0  0
 20 27  1  0  0  0  0
 21 29  1  0  0  0  0
 22 23  1  0  0  0  0
 22 28  1  0  0  0  0
 23 29  1  0  0  0  0
  1 30  1  0  0  0  0
  2 31  1  0  0  0  0
  3 32  1  0  0  0  0
  4 33  1  0  0  0  0
  8 34  1  0  0  0  0
  8 35  1  0  0  0  0
  9 36  1  0  0  0  0
  9 37  1  0  0  0  0
 10 38  1  0  0  0  0
 10 39  1  0  0  0  0
 11 40  1  0  0  0  0
 11 41  1  0  0  0  0
 12 42  1  0  0  0  0
 12 43  1  0  0  0  0
 13 44  1  0  0  0  0
 13 45  1  0  0  0  0
 14 46  1  0  0  0  0
 15 47  1  0  0  0  0
 16 48  1  0  0  0  0
 18 49  1  0  0  0  0
 18 50  1  0  0  0  0
 18 51  1  0  0  0  0
 19 52  1  0  0  0  0
 19 53  1  0  0  0  0
 20 54  1  0  0  0  0
 20 55  1  0  0  0  0
 21 56  1  0  0  0  0
 21 57  1  0  0  0  0
 22 58  1  0  0  0  0
 22 59  1  0  0  0  0
 23 60  1  0  0  0  0
 23 61  1  0  0  0  0
 24 62  1  0  0  0  0
 25 63  1  0  0  0  0
M  END
> <Name>
A_19

> <SourceTag>
A_19

> <Gold.Version>
5.2

> <Gold.Id.Protein>
6HGV|6HGV_protein|mol2

> <Gold.Goldscore.Fitness>
69.4776

> <Gold.Goldscore.Internal.Vdw>
-17.3352

> <Gold.Goldscore.Internal.Torsion>
-3.5524

> <Gold.Goldscore.External.Vdw>
51.8398

> <Gold.Goldscore.Internal.HBond>
0.0000

> <Gold.Goldscore.External.HBond>
3.1967

> <Gold.Goldscore.Internal.Correction>
-15.8888

> <Gold.Goldscore.Hbonds>
donor molecule, donor type, donor heavy atom, donor atom, acceptor molecule, acceptor atom, score
      P1  H  1247  3847       L1    26  0.02
      L1  H    24    62       P1   853  0.31
      L1  H    25    63       P1   853  0.22

> <Gold.Goldscore.Internal.Vdw.Weighted>
-17.3352

> <Gold.Goldscore.Internal.Torsion.Weighted>
-3.5524

> <Gold.Goldscore.External.Vdw.Weighted>
71.2797

> <Gold.Goldscore.Internal.HBond.Weighted>
0.0000

> <Gold.Goldscore.External.HBond.Weighted>
3.1967

> <Gold.Goldscore.Internal.Correction.Weighted>
-15.8888

> <Gold.Protein.RotatedTorsions>
[ 3781 1176 1175 1172 ] final  -57.25 input   60.00 | X-H torsion
[ 3847 1247 1246 1244 ] final  150.19 input   60.00 | X-H torsion
[ 4507 1931 1930 1928 ] final  110.62 input   60.00 | X-H torsion
[ 3677 1070 1069 1066 ] final -121.25 input   60.00 | X-H torsion
[ 3525  925  924  922 ] final -127.97 input   59.99 | X-H torsion
[ 4531 1957 1955 1953 ] final  -33.27 input   60.00 | X-H torsion

> <Gold.Protein.ActiveResidues>
 PHE267  PRO268  MET310  ASP335  TRP336  MET339  TYR343  THR360  PRO361  ILE363 
 PRO371  SER374  ILE375  ASN378  PHE381  TYR383  GLN384  PHE387  LEU408  LEU417 
 MET419  LEU428  TYR466  MET469  ASN472  ASP496  VAL498  LEU499  MET503  HIS524 
 TRP525 

> <Gold.Protein.RotatedAtoms>
   -2.9032  -29.9828  -29.0063 H   0  0  0  0  0  0  0  0  0  0  0  0  # atno 3525 bound_to 925 
  -11.4476  -23.5657  -31.4508 H   0  0  0  0  0  0  0  0  0  0  0  0  # atno 3677 bound_to 1070
  -10.2687  -36.7011  -34.1545 H   0  0  0  0  0  0  0  0  0  0  0  0  # atno 3781 bound_to 1176
  -14.3853  -27.8300  -37.9145 H   0  0  0  0  0  0  0  0  0  0  0  0  # atno 3847 bound_to 1247
  -12.4322  -24.0198  -39.2306 H   0  0  0  0  0  0  0  0  0  0  0  0  # atno 4507 bound_to 1931
   -2.4047  -32.2245  -36.7702 H   0  0  0  0  0  0  0  0  0  0  0  0  # atno 4531 bound_to 1957
   -9.2581  -36.4953  -32.8957 LP  0  0  0  0  0  0  0  0  0  0  0  0  # atno 5205 bound_to 1176
  -10.5822  -37.4379  -32.7378 LP  0  0  0  0  0  0  0  0  0  0  0  0  # atno 5206 bound_to 1176
  -15.2813  -28.9422  -37.1346 LP  0  0  0  0  0  0  0  0  0  0  0  0  # atno 5215 bound_to 1247
  -15.9035  -27.4667  -37.4549 LP  0  0  0  0  0  0  0  0  0  0  0  0  # atno 5216 bound_to 1247
  -13.3562  -25.3588  -39.1951 LP  0  0  0  0  0  0  0  0  0  0  0  0  # atno 5217 bound_to 1931
  -13.4108  -24.3595  -40.4855 LP  0  0  0  0  0  0  0  0  0  0  0  0  # atno 5218 bound_to 1931
  -11.5957  -22.1885  -30.5967 LP  0  0  0  0  0  0  0  0  0  0  0  0  # atno 5224 bound_to 1070
  -12.8143  -23.2754  -30.6165 LP  0  0  0  0  0  0  0  0  0  0  0  0  # atno 5225 bound_to 1070

$$$$
A_1|SEH_inhibs_minimized|sdf|1|dock4
  -GOLD-   41821 8533D 1   1.00000     0.00000

 80 82  0  0  0  0  0  0  0  0  1 V2000
  -22.3684  -22.7759  -37.8363 C   0  0  0  0  0  0  0  0  0  0  0  0
   -7.7847  -28.8979  -34.4101 C   0  0  0  0  0  0  0  0  0  0  0  0
   -3.5536  -31.0225  -33.6598 C   0  0  0  0  0  0  0  0  0  0  0  0
   -4.6061  -33.1219  -34.5396 C   0  0  0  0  0  0  0  0  0  0  0  0
   -4.7485  -32.5770  -32.0958 C   0  0  0  0  0  0  0  0  0  0  0  0
   -5.6043  -30.8903  -35.0967 C   0  0  0  0  0  0  0  0  0  0  0  0
   -5.7467  -30.3448  -32.6505 C   0  0  0  0  0  0  0  0  0  0  0  0
   -6.8009  -32.4476  -33.5310 C   0  0  0  0  0  0  0  0  0  0  0  0
   -4.2887  -31.6505  -34.8559 C   0  0  0  0  0  0  0  0  0  0  0  0
   -4.4317  -31.1028  -32.3996 C   0  0  0  0  0  0  0  0  0  0  0  0
   -5.4897  -33.2135  -33.2838 C   0  0  0  0  0  0  0  0  0  0  0  0
   -6.5059  -30.9648  -33.8445 C   0  0  0  0  0  0  0  0  0  0  0  0
  -24.0453  -25.3272  -35.0847 C   0  0  0  0  0  0  0  0  0  0  0  0
  -24.4273  -21.5913  -36.0670 C   0  0  0  0  0  0  0  0  0  0  0  0
  -20.8615  -22.7546  -37.9693 C   0  0  0  0  0  0  0  0  0  0  0  0
  -24.3410  -23.8406  -34.9355 C   0  0  0  0  0  0  0  0  0  0  0  0
  -20.1866  -23.9990  -37.3903 C   0  0  0  0  0  0  0  0  0  0  0  0
  -18.6787  -24.0246  -37.6638 C   0  0  0  0  0  0  0  0  0  0  0  0
  -17.8972  -24.8885  -36.6679 C   0  0  0  0  0  0  0  0  0  0  0  0
  -16.4917  -25.2518  -37.1540 C   0  0  0  0  0  0  0  0  0  0  0  0
  -15.5871  -25.7902  -36.0407 C   0  0  0  0  0  0  0  0  0  0  0  0
  -14.1006  -25.7704  -36.4039 C   0  0  0  0  0  0  0  0  0  0  0  0
  -13.2459  -26.3476  -35.2721 C   0  0  0  0  0  0  0  0  0  0  0  0
  -11.7595  -26.3278  -35.6354 C   0  0  0  0  0  0  0  0  0  0  0  0
  -10.8470  -26.7452  -34.4797 C   0  0  0  0  0  0  0  0  0  0  0  0
   -9.4327  -27.1023  -34.9234 C   0  0  0  0  0  0  0  0  0  0  0  0
  -24.0804  -23.0651  -36.2286 C   0  0  2  0  0  0  0  0  0  0  0  0
   -7.7392  -30.2480  -34.0730 N   0  0  0  0  0  0  0  0  0  0  0  0
   -9.0987  -28.4566  -34.5735 N   0  0  0  0  0  0  0  0  0  0  0  0
  -23.1587  -22.4580  -38.7143 O   0  0  0  0  0  0  0  0  0  0  0  0
   -6.7944  -28.1811  -34.5479 O   0  0  0  0  0  0  0  0  0  0  0  0
  -22.6957  -23.1792  -36.5726 O   0  0  0  0  0  0  0  0  0  0  0  0
   -2.6040  -31.5441  -33.4886 H   0  0  0  0  0  0  0  0  0  0  0  0
   -3.3073  -29.9763  -33.8786 H   0  0  0  0  0  0  0  0  0  0  0  0
   -5.1171  -33.5867  -35.3916 H   0  0  0  0  0  0  0  0  0  0  0  0
   -3.6747  -33.6803  -34.3834 H   0  0  0  0  0  0  0  0  0  0  0  0
   -3.8202  -33.1263  -31.8965 H   0  0  0  0  0  0  0  0  0  0  0  0
   -5.3618  -32.6491  -31.1892 H   0  0  0  0  0  0  0  0  0  0  0  0
   -5.3879  -29.8437  -35.3483 H   0  0  0  0  0  0  0  0  0  0  0  0
   -6.1256  -31.3137  -35.9655 H   0  0  0  0  0  0  0  0  0  0  0  0
   -6.3710  -30.3731  -31.7477 H   0  0  0  0  0  0  0  0  0  0  0  0
   -5.5350  -29.2849  -32.8441 H   0  0  0  0  0  0  0  0  0  0  0  0
   -7.3512  -32.9092  -34.3613 H   0  0  0  0  0  0  0  0  0  0  0  0
   -7.4502  -32.5287  -32.6491 H   0  0  0  0  0  0  0  0  0  0  0  0
   -3.6584  -31.5918  -35.7502 H   0  0  0  0  0  0  0  0  0  0  0  0
   -3.9027  -30.6553  -31.5508 H   0  0  0  0  0  0  0  0  0  0  0  0
   -5.7106  -34.2636  -33.0625 H   0  0  0  0  0  0  0  0  0  0  0  0
  -24.3429  -25.8771  -34.1862 H   0  0  0  0  0  0  0  0  0  0  0  0
  -22.9802  -25.5065  -35.2616 H   0  0  0  0  0  0  0  0  0  0  0  0
  -24.6009  -25.7388  -35.9334 H   0  0  0  0  0  0  0  0  0  0  0  0
  -23.7587  -21.1078  -35.3459 H   0  0  0  0  0  0  0  0  0  0  0  0
  -24.3599  -21.0595  -37.0209 H   0  0  0  0  0  0  0  0  0  0  0  0
  -25.4446  -21.4774  -35.6771 H   0  0  0  0  0  0  0  0  0  0  0  0
  -20.4707  -21.8582  -37.4746 H   0  0  0  0  0  0  0  0  0  0  0  0
  -20.6333  -22.6894  -39.0392 H   0  0  0  0  0  0  0  0  0  0  0  0
  -23.7227  -23.4349  -34.1265 H   0  0  0  0  0  0  0  0  0  0  0  0
  -25.3911  -23.7295  -34.6390 H   0  0  0  0  0  0  0  0  0  0  0  0
  -20.3709  -24.0630  -36.3113 H   0  0  0  0  0  0  0  0  0  0  0  0
  -20.6524  -24.8787  -37.8486 H   0  0  0  0  0  0  0  0  0  0  0  0
  -18.2776  -23.0055  -37.6131 H   0  0  0  0  0  0  0  0  0  0  0  0
  -18.4946  -24.3831  -38.6840 H   0  0  0  0  0  0  0  0  0  0  0  0
  -17.8184  -24.3347  -35.7243 H   0  0  0  0  0  0  0  0  0  0  0  0
  -18.4714  -25.7976  -36.4560 H   0  0  0  0  0  0  0  0  0  0  0  0
  -16.0167  -24.3588  -37.5781 H   0  0  0  0  0  0  0  0  0  0  0  0
  -16.5492  -25.9939  -37.9583 H   0  0  0  0  0  0  0  0  0  0  0  0
  -15.7454  -25.1758  -35.1456 H   0  0  0  0  0  0  0  0  0  0  0  0
  -15.8918  -26.8110  -35.7801 H   0  0  0  0  0  0  0  0  0  0  0  0
  -13.7865  -24.7405  -36.6122 H   0  0  0  0  0  0  0  0  0  0  0  0
  -13.9292  -26.3540  -37.3153 H   0  0  0  0  0  0  0  0  0  0  0  0
  -13.4166  -25.7642  -34.3604 H   0  0  0  0  0  0  0  0  0  0  0  0
  -13.5604  -27.3774  -35.0640 H   0  0  0  0  0  0  0  0  0  0  0  0
  -11.4767  -25.3269  -35.9834 H   0  0  0  0  0  0  0  0  0  0  0  0
  -11.5856  -27.0141  -36.4734 H   0  0  0  0  0  0  0  0  0  0  0  0
  -10.8104  -25.9467  -33.7282 H   0  0  0  0  0  0  0  0  0  0  0  0
  -11.2962  -27.6138  -33.9811 H   0  0  0  0  0  0  0  0  0  0  0  0
   -9.3298  -27.0113  -36.0093 H   0  0  0  0  0  0  0  0  0  0  0  0
   -8.6879  -26.4588  -34.4470 H   0  0  0  0  0  0  0  0  0  0  0  0
  -24.6692  -23.4946  -37.0470 H   0  0  0  0  0  0  0  0  0  0  0  0
   -8.6152  -30.7533  -33.9835 H   0  0  0  0  0  0  0  0  0  0  0  0
   -9.8508  -29.1368  -34.4835 H   0  0  0  0  0  0  0  0  0  0  0  0
  1 15  1  0  0  0  0
  1 30  2  0  0  0  0
  1 32  1  0  0  0  0
  2 28  1  0  0  0  0
  2 29  1  0  0  0  0
  2 31  2  0  0  0  0
  3  9  1  0  0  0  0
  3 10  1  0  0  0  0
  4  9  1  0  0  0  0
  4 11  1  0  0  0  0
  5 10  1  0  0  0  0
  5 11  1  0  0  0  0
  6  9  1  0  0  0  0
  6 12  1  0  0  0  0
  7 10  1  0  0  0  0
  7 12  1  0  0  0  0
  8 11  1  0  0  0  0
  8 12  1  0  0  0  0
 12 28  1  0  0  0  0
 13 16  1  0  0  0  0
 14 27  1  0  0  0  0
 15 17  1  0  0  0  0
 16 27  1  0  0  0  0
 17 18  1  0  0  0  0
 18 19  1  0  0  0  0
 19 20  1  0  0  0  0
 20 21  1  0  0  0  0
 21 22  1  0  0  0  0
 22 23  1  0  0  0  0
 23 24  1  0  0  0  0
 24 25  1  0  0  0  0
 25 26  1  0  0  0  0
 26 29  1  0  0  0  0
 27 32  1  0  0  0  0
  3 33  1  0  0  0  0
  3 34  1  0  0  0  0
  4 35  1  0  0  0  0
  4 36  1  0  0  0  0
  5 37  1  0  0  0  0
  5 38  1  0  0  0  0
  6 39  1  0  0  0  0
  6 40  1  0  0  0  0
  7 41  1  0  0  0  0
  7 42  1  0  0  0  0
  8 43  1  0  0  0  0
  8 44  1  0  0  0  0
  9 45  1  0  0  0  0
 10 46  1  0  0  0  0
 11 47  1  0  0  0  0
 13 48  1  0  0  0  0
 13 49  1  0  0  0  0
 13 50  1  0  0  0  0
 14 51  1  0  0  0  0
 14 52  1  0  0  0  0
 14 53  1  0  0  0  0
 15 54  1  0  0  0  0
 15 55  1  0  0  0  0
 16 56  1  0  0  0  0
 16 57  1  0  0  0  0
 17 58  1  0  0  0  0
 17 59  1  0  0  0  0
 18 60  1  0  0  0  0
 18 61  1  0  0  0  0
 19 62  1  0  0  0  0
 19 63  1  0  0  0  0
 20 64  1  0  0  0  0
 20 65  1  0  0  0  0
 21 66  1  0  0  0  0
 21 67  1  0  0  0  0
 22 68  1  0  0  0  0
 22 69  1  0  0  0  0
 23 70  1  0  0  0  0
 23 71  1  0  0  0  0
 24 72  1  0  0  0  0
 24 73  1  0  0  0  0
 25 74  1  0  0  0  0
 25 75  1  0  0  0  0
 26 76  1  0  0  0  0
 26 77  1  0  0  0  0
 27 78  1  0  0  0  0
 28 79  1  0  0  0  0
 29 80  1  0  0  0  0
M  END
> <Name>
A_1

> <SourceTag>
A_1

> <Gold.Version>
5.2

> <Gold.Id.Protein>
6HGV|6HGV_protein|mol2

> <Gold.Goldscore.Fitness>
85.2847

> <Gold.Goldscore.Internal.Vdw>
-9.5524

> <Gold.Goldscore.Internal.Torsion>
-8.5149

> <Gold.Goldscore.External.Vdw>
66.4781

> <Gold.Goldscore.Internal.HBond>
0.0000

> <Gold.Goldscore.External.HBond>
0.1765

> <Gold.Goldscore.Internal.Correction>
-11.7681

> <Gold.Goldscore.Hbonds>
donor molecule, donor type, donor heavy atom, donor atom, acceptor molecule, acceptor atom, score
      P1  H  2428  4927       L1    30  0.09

> <Gold.Goldscore.Internal.Vdw.Weighted>
-9.5524

> <Gold.Goldscore.Internal.Torsion.Weighted>
-8.5149

> <Gold.Goldscore.External.Vdw.Weighted>
91.4074

> <Gold.Goldscore.Internal.HBond.Weighted>
0.0000

> <Gold.Goldscore.External.HBond.Weighted>
0.1765

> <Gold.Goldscore.Internal.Correction.Weighted>
-11.7681

> <Gold.Protein.RotatedTorsions>
[ 3781 1176 1175 1172 ] final  169.98 input   60.00 | X-H torsion
[ 3847 1247 1246 1244 ] final   69.23 input   60.00 | X-H torsion
[ 4507 1931 1930 1928 ] final   66.04 input   60.00 | X-H torsion
[ 3677 1070 1069 1066 ] final -107.25 input   60.00 | X-H torsion
[ 3525  925  924  922 ] final  -78.43 input   59.99 | X-H torsion
[ 4531 1957 1955 1953 ] final  111.37 input   60.00 | X-H torsion

> <Gold.Protein.ActiveResidues>
 PHE267  PRO268  MET310  ASP335  TRP336  MET339  TYR343  THR360  PRO361  ILE363 
 PRO371  SER374  ILE375  ASN378  PHE381  TYR383  GLN384  PHE387  LEU408  LEU417 
 MET419  LEU428  TYR466  MET469  ASN472  ASP496  VAL498  LEU499  MET503  HIS524 
 TRP525 

> <Gold.Protein.RotatedAtoms>
   -3.5603  -29.6696  -29.2989 H   0  0  0  0  0  0  0  0  0  0  0  0  # atno 3525 bound_to 925 
  -11.6316  -23.7000  -31.4369 H   0  0  0  0  0  0  0  0  0  0  0  0  # atno 3677 bound_to 1070
   -9.3208  -36.6031  -32.7279 H   0  0  0  0  0  0  0  0  0  0  0  0  # atno 3781 bound_to 1176
  -14.7103  -28.8758  -37.3869 H   0  0  0  0  0  0  0  0  0  0  0  0  # atno 3847 bound_to 1247
  -12.5920  -24.5828  -38.8282 H   0  0  0  0  0  0  0  0  0  0  0  0  # atno 4507 bound_to 1931
   -2.5111  -34.0054  -36.7808 H   0  0  0  0  0  0  0  0  0  0  0  0  # atno 4531 bound_to 1957
  -10.6981  -37.4499  -32.9122 LP  0  0  0  0  0  0  0  0  0  0  0  0  # atno 5205 bound_to 1176
  -10.0968  -36.5821  -34.1580 LP  0  0  0  0  0  0  0  0  0  0  0  0  # atno 5206 bound_to 1176
  -16.0719  -28.0087  -37.1814 LP  0  0  0  0  0  0  0  0  0  0  0  0  # atno 5215 bound_to 1247
  -14.7856  -27.3470  -37.9394 LP  0  0  0  0  0  0  0  0  0  0  0  0  # atno 5216 bound_to 1247
  -13.6703  -25.2738  -39.8320 LP  0  0  0  0  0  0  0  0  0  0  0  0  # atno 5217 bound_to 1931
  -12.9359  -23.8776  -40.2538 LP  0  0  0  0  0  0  0  0  0  0  0  0  # atno 5218 bound_to 1931
  -11.4150  -22.2539  -30.7228 LP  0  0  0  0  0  0  0  0  0  0  0  0  # atno 5224 bound_to 1070
  -12.8097  -23.0748  -30.5045 LP  0  0  0  0  0  0  0  0  0  0  0  0  # atno 5225 bound_to 1070

$$$$
A_59|SEH_inhibs_minimized|sdf|40|dock1
  -GOLD-   4182110123D 1   1.00000     0.00000

 68 70  0  0  0  0  0  0  0  0  1 V2000
  -14.2841  -25.1126  -37.0592 C   0  0  0  0  0  0  0  0  0  0  0  0
  -18.9417  -23.2578  -38.8184 C   0  0  0  0  0  0  0  0  0  0  0  0
  -17.9797  -24.4955  -40.7761 C   0  0  0  0  0  0  0  0  0  0  0  0
  -16.9075  -22.3703  -39.9866 C   0  0  0  0  0  0  0  0  0  0  0  0
  -17.7833  -25.4538  -38.4673 C   0  0  0  0  0  0  0  0  0  0  0  0
  -16.7101  -23.3265  -37.6771 C   0  0  0  0  0  0  0  0  0  0  0  0
  -15.7462  -24.5655  -39.6377 C   0  0  0  0  0  0  0  0  0  0  0  0
  -18.6867  -24.6506  -39.4188 C   0  0  0  0  0  0  0  0  0  0  0  0
  -17.6091  -22.5145  -38.6254 C   0  0  0  0  0  0  0  0  0  0  0  0
  -16.6419  -23.7585  -40.5935 C   0  0  0  0  0  0  0  0  0  0  0  0
  -16.4346  -24.7281  -38.2653 C   0  0  0  0  0  0  0  0  0  0  0  0
  -10.2335  -27.2002  -35.2163 C   0  0  0  0  0  0  0  0  0  0  0  0
  -11.4347  -27.0019  -36.1461 C   0  0  0  0  0  0  0  0  0  0  0  0
   -9.3377  -28.3427  -35.7054 C   0  0  0  0  0  0  0  0  0  0  0  0
  -12.3484  -25.8698  -35.6868 C   0  0  0  0  0  0  0  0  0  0  0  0
   -8.0750  -28.4860  -34.8644 C   0  0  0  0  0  0  0  0  0  0  0  0
   -5.9069  -29.3917  -34.8284 C   0  0  0  0  0  0  0  0  0  0  0  0
   -5.1660  -30.6454  -35.2519 C   0  0  0  0  0  0  0  0  0  0  0  0
   -4.0977  -32.5703  -34.4296 C   0  0  0  0  0  0  0  0  0  0  0  0
   -3.7589  -33.3238  -33.1578 C   0  0  0  0  0  0  0  0  0  0  0  0
   -4.6755  -34.1531  -31.1591 C   0  0  0  0  0  0  0  0  0  0  0  0
   -5.9460  -34.2318  -30.3532 C   0  0  0  0  0  0  0  0  0  0  0  0
  -15.5885  -25.4846  -37.3683 N   0  0  0  0  0  0  0  0  0  0  0  0
  -13.6997  -26.0153  -36.1743 N   0  0  0  0  0  0  0  0  0  0  0  0
  -13.7183  -24.1163  -37.5074 O   0  0  0  0  0  0  0  0  0  0  0  0
   -7.1407  -29.3224  -35.5310 O   0  0  0  0  0  0  0  0  0  0  0  0
   -4.8005  -31.3828  -34.0917 O   0  0  0  0  0  0  0  0  0  0  0  0
   -4.9307  -33.4371  -32.3594 O   0  0  0  0  0  0  0  0  0  0  0  0
   -6.3897  -32.9941  -30.0425 F   0  0  0  0  0  0  0  0  0  0  0  0
   -5.7519  -34.9012  -29.1972 F   0  0  0  0  0  0  0  0  0  0  0  0
   -6.9242  -34.8579  -31.0410 F   0  0  0  0  0  0  0  0  0  0  0  0
  -19.6004  -22.6807  -39.4790 H   0  0  0  0  0  0  0  0  0  0  0  0
  -19.4599  -23.3536  -37.8565 H   0  0  0  0  0  0  0  0  0  0  0  0
  -17.8058  -25.4819  -41.2230 H   0  0  0  0  0  0  0  0  0  0  0  0
  -18.6215  -23.9396  -41.4709 H   0  0  0  0  0  0  0  0  0  0  0  0
  -17.5298  -21.7772  -40.6679 H   0  0  0  0  0  0  0  0  0  0  0  0
  -15.9621  -21.8274  -39.8650 H   0  0  0  0  0  0  0  0  0  0  0  0
  -18.2895  -25.5922  -37.5029 H   0  0  0  0  0  0  0  0  0  0  0  0
  -17.6157  -26.4602  -38.8735 H   0  0  0  0  0  0  0  0  0  0  0  0
  -15.7653  -22.7921  -37.5110 H   0  0  0  0  0  0  0  0  0  0  0  0
  -17.1898  -23.4150  -36.6934 H   0  0  0  0  0  0  0  0  0  0  0  0
  -15.5289  -25.5498  -40.0727 H   0  0  0  0  0  0  0  0  0  0  0  0
  -14.7781  -24.0606  -39.5210 H   0  0  0  0  0  0  0  0  0  0  0  0
  -19.6390  -25.1750  -39.5554 H   0  0  0  0  0  0  0  0  0  0  0  0
  -17.7968  -21.5230  -38.1989 H   0  0  0  0  0  0  0  0  0  0  0  0
  -16.1441  -23.6494  -41.5635 H   0  0  0  0  0  0  0  0  0  0  0  0
   -9.6561  -26.2694  -35.1650 H   0  0  0  0  0  0  0  0  0  0  0  0
  -10.5806  -27.4221  -34.2002 H   0  0  0  0  0  0  0  0  0  0  0  0
  -12.0060  -27.9361  -36.2131 H   0  0  0  0  0  0  0  0  0  0  0  0
  -11.0735  -26.7711  -37.1557 H   0  0  0  0  0  0  0  0  0  0  0  0
   -9.8952  -29.2860  -35.6774 H   0  0  0  0  0  0  0  0  0  0  0  0
   -9.0576  -28.1517  -36.7485 H   0  0  0  0  0  0  0  0  0  0  0  0
  -12.3906  -25.8167  -34.5943 H   0  0  0  0  0  0  0  0  0  0  0  0
  -11.9760  -24.9115  -36.0618 H   0  0  0  0  0  0  0  0  0  0  0  0
   -8.3181  -28.9425  -33.8997 H   0  0  0  0  0  0  0  0  0  0  0  0
   -7.6110  -27.5109  -34.6845 H   0  0  0  0  0  0  0  0  0  0  0  0
   -5.3290  -28.4931  -35.0649 H   0  0  0  0  0  0  0  0  0  0  0  0
   -6.1240  -29.4191  -33.7566 H   0  0  0  0  0  0  0  0  0  0  0  0
   -4.2517  -30.3973  -35.8001 H   0  0  0  0  0  0  0  0  0  0  0  0
   -5.8075  -31.2781  -35.8722 H   0  0  0  0  0  0  0  0  0  0  0  0
   -4.7368  -33.1699  -35.0850 H   0  0  0  0  0  0  0  0  0  0  0  0
   -3.1847  -32.2883  -34.9622 H   0  0  0  0  0  0  0  0  0  0  0  0
   -2.9994  -32.7931  -32.5751 H   0  0  0  0  0  0  0  0  0  0  0  0
   -3.4054  -34.3320  -33.3927 H   0  0  0  0  0  0  0  0  0  0  0  0
   -3.8956  -33.6312  -30.5969 H   0  0  0  0  0  0  0  0  0  0  0  0
   -4.3205  -35.1556  -31.4158 H   0  0  0  0  0  0  0  0  0  0  0  0
  -15.9642  -26.3262  -36.9447 H   0  0  0  0  0  0  0  0  0  0  0  0
  -14.2592  -26.7851  -35.8209 H   0  0  0  0  0  0  0  0  0  0  0  0
  1 23  1  0  0  0  0
  1 24  1  0  0  0  0
  1 25  2  0  0  0  0
  2  8  1  0  0  0  0
  2  9  1  0  0  0  0
  3  8  1  0  0  0  0
  3 10  1  0  0  0  0
  4  9  1  0  0  0  0
  4 10  1  0  0  0  0
  5  8  1  0  0  0  0
  5 11  1  0  0  0  0
  6  9  1  0  0  0  0
  6 11  1  0  0  0  0
  7 10  1  0  0  0  0
  7 11  1  0  0  0  0
 11 23  1  0  0  0  0
 12 13  1  0  0  0  0
 12 14  1  0  0  0  0
 13 15  1  0  0  0  0
 14 16  1  0  0  0  0
 15 24  1  0  0  0  0
 16 26  1  0  0  0  0
 17 18  1  0  0  0  0
 17 26  1  0  0  0  0
 18 27  1  0  0  0  0
 19 20  1  0  0  0  0
 19 27  1  0  0  0  0
 20 28  1  0  0  0  0
 21 22  1  0  0  0  0
 21 28  1  0  0  0  0
 22 29  1  0  0  0  0
 22 30  1  0  0  0  0
 22 31  1  0  0  0  0
  2 32  1  0  0  0  0
  2 33  1  0  0  0  0
  3 34  1  0  0  0  0
  3 35  1  0  0  0  0
  4 36  1  0  0  0  0
  4 37  1  0  0  0  0
  5 38  1  0  0  0  0
  5 39  1  0  0  0  0
  6 40  1  0  0  0  0
  6 41  1  0  0  0  0
  7 42  1  0  0  0  0
  7 43  1  0  0  0  0
  8 44  1  0  0  0  0
  9 45  1  0  0  0  0
 10 46  1  0  0  0  0
 12 47  1  0  0  0  0
 12 48  1  0  0  0  0
 13 49  1  0  0  0  0
 13 50  1  0  0  0  0
 14 51  1  0  0  0  0
 14 52  1  0  0  0  0
 15 53  1  0  0  0  0
 15 54  1  0  0  0  0
 16 55  1  0  0  0  0
 16 56  1  0  0  0  0
 17 57  1  0  0  0  0
 17 58  1  0  0  0  0
 18 59  1  0  0  0  0
 18 60  1  0  0  0  0
 19 61  1  0  0  0  0
 19 62  1  0  0  0  0
 20 63  1  0  0  0  0
 20 64  1  0  0  0  0
 21 65  1  0  0  0  0
 21 66  1  0  0  0  0
 23 67  1  0  0  0  0
 24 68  1  0  0  0  0
M  END
> <Name>
A_59

> <SourceTag>
A_59

> <Gold.Version>
5.2

> <Gold.Id.Protein>
6HGV|6HGV_protein|mol2

> <Gold.Goldscore.Fitness>
72.1177

> <Gold.Goldscore.Internal.Vdw>
-11.3761

> <Gold.Goldscore.Internal.Torsion>
-6.5872

> <Gold.Goldscore.External.Vdw>
52.9368

> <Gold.Goldscore.Internal.HBond>
0.0000

> <Gold.Goldscore.External.HBond>
0.0000

> <Gold.Goldscore.Internal.Correction>
-17.2928

> <Gold.Goldscore.Internal.Vdw.Weighted>
-11.3761

> <Gold.Goldscore.Internal.Torsion.Weighted>
-6.5872

> <Gold.Goldscore.External.Vdw.Weighted>
72.7882

> <Gold.Goldscore.Internal.HBond.Weighted>
0.0000

> <Gold.Goldscore.External.HBond.Weighted>
0.0000

> <Gold.Goldscore.Internal.Correction.Weighted>
-17.2928

> <Gold.Protein.RotatedTorsions>
[ 3781 1176 1175 1172 ] final  177.20 input   60.00 | X-H torsion
[ 3847 1247 1246 1244 ] final  114.67 input   60.00 | X-H torsion
[ 4507 1931 1930 1928 ] final  118.14 input   60.00 | X-H torsion
[ 3677 1070 1069 1066 ] final -112.87 input   60.00 | X-H torsion
[ 3525  925  924  922 ] final   21.12 input   59.99 | X-H torsion
[ 4531 1957 1955 1953 ] final  102.30 input   60.00 | X-H torsion

> <Gold.Protein.ActiveResidues>
 PHE267  PRO268  MET310  ASP335  TRP336  MET339  TYR343  THR360  PRO361  ILE363 
 PRO371  SER374  ILE375  ASN378  PHE381  TYR383  GLN384  PHE387  LEU408  LEU417 
 MET419  LEU428  TYR466  MET469  ASN472  ASP496  VAL498  LEU499  MET503  HIS524 
 TRP525 

> <Gold.Protein.RotatedAtoms>
   -3.3638  -29.6257  -30.7144 H   0  0  0  0  0  0  0  0  0  0  0  0  # atno 3525 bound_to 925 
  -11.5547  -23.6505  -31.4465 H   0  0  0  0  0  0  0  0  0  0  0  0  # atno 3677 bound_to 1070
   -9.2832  -36.5427  -32.8219 H   0  0  0  0  0  0  0  0  0  0  0  0  # atno 3781 bound_to 1176
  -14.3276  -28.3680  -37.7313 H   0  0  0  0  0  0  0  0  0  0  0  0  # atno 3847 bound_to 1247
  -12.4417  -23.9496  -39.3308 H   0  0  0  0  0  0  0  0  0  0  0  0  # atno 4507 bound_to 1931
   -2.6422  -33.9417  -36.7548 H   0  0  0  0  0  0  0  0  0  0  0  0  # atno 4531 bound_to 1957
  -10.6363  -37.4466  -32.8109 LP  0  0  0  0  0  0  0  0  0  0  0  0  # atno 5205 bound_to 1176
  -10.1966  -36.6462  -34.1647 LP  0  0  0  0  0  0  0  0  0  0  0  0  # atno 5206 bound_to 1176
  -15.7754  -28.6605  -37.0485 LP  0  0  0  0  0  0  0  0  0  0  0  0  # atno 5215 bound_to 1247
  -15.4675  -27.2067  -37.7254 LP  0  0  0  0  0  0  0  0  0  0  0  0  # atno 5216 bound_to 1247
  -13.2796  -25.3260  -39.1038 LP  0  0  0  0  0  0  0  0  0  0  0  0  # atno 5217 bound_to 1931
  -13.4779  -24.4629  -40.4758 LP  0  0  0  0  0  0  0  0  0  0  0  0  # atno 5218 bound_to 1931
  -11.4844  -22.2219  -30.6705 LP  0  0  0  0  0  0  0  0  0  0  0  0  # atno 5224 bound_to 1070
  -12.8178  -23.1565  -30.5472 LP  0  0  0  0  0  0  0  0  0  0  0  0  # atno 5225 bound_to 1070

$$$$
A_105|SEH_inhibs_minimized|sdf|7|dock2
  -GOLD-   41821 9 43D 1   1.00000     0.00000

 51 54  0  0  0  0  0  0  0  0  1 V2000
   -8.9264  -31.6081  -35.4471 C   0  0  0  0  0  0  0  0  0  0  0  0
   -7.0134  -30.1323  -35.4457 C   0  0  0  0  0  0  0  0  0  0  0  0
  -19.3036  -25.3944  -37.8431 C   0  0  0  0  0  0  0  0  0  0  0  0
   -9.7726  -30.5114  -35.2838 C   0  0  0  0  0  0  0  0  0  0  0  0
   -7.8597  -29.0356  -35.2826 C   0  0  0  0  0  0  0  0  0  0  0  0
  -17.9294  -25.4313  -38.1030 C   0  0  0  0  0  0  0  0  0  0  0  0
  -18.9319  -25.1852  -35.4382 C   0  0  0  0  0  0  0  0  0  0  0  0
   -7.5467  -31.4186  -35.5279 C   0  0  0  0  0  0  0  0  0  0  0  0
  -19.7973  -25.2738  -36.5383 C   0  0  0  0  0  0  0  0  0  0  0  0
  -17.5515  -25.2209  -35.6815 C   0  0  0  0  0  0  0  0  0  0  0  0
   -9.2393  -29.2251  -35.2016 C   0  0  0  0  0  0  0  0  0  0  0  0
  -17.1042  -25.3413  -36.9889 C   0  0  0  0  0  0  0  0  0  0  0  0
  -15.4429  -25.2386  -35.6381 C   0  0  0  0  0  0  0  0  0  0  0  0
   -6.6645  -32.5621  -35.6981 C   0  0  0  0  0  0  0  0  0  0  0  0
  -13.2817  -26.2995  -34.9117 C   0  0  0  0  0  0  0  0  0  0  0  0
  -10.9968  -25.9954  -35.8855 C   0  0  0  0  0  0  0  0  0  0  0  0
  -11.2848  -26.6524  -33.4678 C   0  0  0  0  0  0  0  0  0  0  0  0
  -10.6204  -27.4403  -36.2198 C   0  0  0  0  0  0  0  0  0  0  0  0
  -10.9314  -28.0931  -33.8363 C   0  0  0  0  0  0  0  0  0  0  0  0
  -11.8706  -25.8670  -34.6396 C   0  0  0  0  0  0  0  0  0  0  0  0
  -21.2732  -25.2391  -36.3113 C   0  0  0  0  0  0  0  0  0  0  0  0
   -5.2238  -32.3898  -35.3133 C   0  0  0  0  0  0  0  0  0  0  0  0
  -16.4761  -25.1564  -34.8289 N   0  0  0  0  0  0  0  0  0  0  0  0
  -10.0886  -28.1244  -35.0378 N   0  0  0  0  0  0  0  0  0  0  0  0
  -14.0695  -25.2225  -35.2976 N   0  0  0  0  0  0  0  0  0  0  0  0
   -7.0090  -33.6607  -36.1389 O   0  0  0  0  0  0  0  0  0  0  0  0
  -13.6134  -27.4741  -34.7887 O   0  0  0  0  0  0  0  0  0  0  0  0
  -15.7389  -25.3528  -36.9631 O   0  0  0  0  0  0  0  0  0  0  0  0
   -9.3526  -32.6060  -35.5100 H   0  0  0  0  0  0  0  0  0  0  0  0
   -5.9399  -29.9731  -35.5076 H   0  0  0  0  0  0  0  0  0  0  0  0
  -19.9956  -25.4615  -38.6803 H   0  0  0  0  0  0  0  0  0  0  0  0
  -10.8462  -30.6704  -35.2219 H   0  0  0  0  0  0  0  0  0  0  0  0
   -7.4336  -28.0375  -35.2197 H   0  0  0  0  0  0  0  0  0  0  0  0
  -17.5377  -25.5244  -39.1081 H   0  0  0  0  0  0  0  0  0  0  0  0
  -19.3173  -25.0917  -34.4275 H   0  0  0  0  0  0  0  0  0  0  0  0
  -10.0722  -25.4272  -35.7171 H   0  0  0  0  0  0  0  0  0  0  0  0
  -11.4919  -25.5423  -36.7530 H   0  0  0  0  0  0  0  0  0  0  0  0
  -11.9822  -26.6571  -32.6217 H   0  0  0  0  0  0  0  0  0  0  0  0
  -10.3738  -26.1431  -33.1273 H   0  0  0  0  0  0  0  0  0  0  0  0
  -11.4994  -27.9777  -36.5983 H   0  0  0  0  0  0  0  0  0  0  0  0
   -9.8723  -27.4294  -37.0226 H   0  0  0  0  0  0  0  0  0  0  0  0
  -10.3995  -28.5464  -32.9900 H   0  0  0  0  0  0  0  0  0  0  0  0
  -11.8419  -28.6826  -34.0008 H   0  0  0  0  0  0  0  0  0  0  0  0
  -11.9329  -24.8100  -34.3547 H   0  0  0  0  0  0  0  0  0  0  0  0
  -21.6643  -24.2343  -36.5088 H   0  0  0  0  0  0  0  0  0  0  0  0
  -21.7916  -25.9509  -36.9654 H   0  0  0  0  0  0  0  0  0  0  0  0
  -21.5219  -25.5145  -35.2789 H   0  0  0  0  0  0  0  0  0  0  0  0
   -4.6367  -31.7987  -36.0338 H   0  0  0  0  0  0  0  0  0  0  0  0
   -4.6981  -33.3458  -35.1644 H   0  0  0  0  0  0  0  0  0  0  0  0
   -5.0892  -31.8496  -34.3593 H   0  0  0  0  0  0  0  0  0  0  0  0
  -13.6191  -24.3109  -35.3457 H   0  0  0  0  0  0  0  0  0  0  0  0
  1  4  1  0  0  0  0
  1  8  2  0  0  0  0
  2  5  2  0  0  0  0
  2  8  1  0  0  0  0
  3  6  1  0  0  0  0
  3  9  2  0  0  0  0
  4 11  2  0  0  0  0
  5 11  1  0  0  0  0
  6 12  2  0  0  0  0
  7  9  1  0  0  0  0
  7 10  2  0  0  0  0
  8 14  1  0  0  0  0
  9 21  1  0  0  0  0
 10 12  1  0  0  0  0
 10 23  1  0  0  0  0
 11 24  1  0  0  0  0
 12 28  1  0  0  0  0
 13 23  2  0  0  0  0
 13 25  1  0  0  0  0
 13 28  1  0  0  0  0
 14 22  1  0  0  0  0
 14 26  2  0  0  0  0
 15 20  1  0  0  0  0
 15 25  1  0  0  0  0
 15 27  2  0  0  0  0
 16 18  1  0  0  0  0
 16 20  1  0  0  0  0
 17 19  1  0  0  0  0
 17 20  1  0  0  0  0
 18 24  1  0  0  0  0
 19 24  1  0  0  0  0
  1 29  1  0  0  0  0
  2 30  1  0  0  0  0
  3 31  1  0  0  0  0
  4 32  1  0  0  0  0
  5 33  1  0  0  0  0
  6 34  1  0  0  0  0
  7 35  1  0  0  0  0
 16 36  1  0  0  0  0
 16 37  1  0  0  0  0
 17 38  1  0  0  0  0
 17 39  1  0  0  0  0
 18 40  1  0  0  0  0
 18 41  1  0  0  0  0
 19 42  1  0  0  0  0
 19 43  1  0  0  0  0
 20 44  1  0  0  0  0
 21 45  1  0  0  0  0
 21 46  1  0  0  0  0
 21 47  1  0  0  0  0
 22 48  1  0  0  0  0
 22 49  1  0  0  0  0
 22 50  1  0  0  0  0
 25 51  1  0  0  0  0
M  END
> <Name>
A_105

> <SourceTag>
A_105

> <Gold.Version>
5.2

> <Gold.Id.Protein>
6HGV|6HGV_protein|mol2

> <Gold.Goldscore.Fitness>
70.3199

> <Gold.Goldscore.Internal.Vdw>
-3.8636

> <Gold.Goldscore.Internal.Torsion>
-9.6704

> <Gold.Goldscore.External.Vdw>
52.7971

> <Gold.Goldscore.Internal.HBond>
0.0000

> <Gold.Goldscore.External.HBond>
2.3778

> <Gold.Goldscore.Internal.Correction>
-8.8800

> <Gold.Goldscore.Hbonds>
donor molecule, donor type, donor heavy atom, donor atom, acceptor molecule, acceptor atom, score
      P1  H  1247  3847       L1    28  0.85
      L1  H    25    51       P1   853  0.11

> <Gold.Goldscore.Internal.Vdw.Weighted>
-3.8636

> <Gold.Goldscore.Internal.Torsion.Weighted>
-9.6704

> <Gold.Goldscore.External.Vdw.Weighted>
72.5961

> <Gold.Goldscore.Internal.HBond.Weighted>
0.0000

> <Gold.Goldscore.External.HBond.Weighted>
2.3778

> <Gold.Goldscore.Internal.Correction.Weighted>
-8.8800

> <Gold.Protein.RotatedTorsions>
[ 3781 1176 1175 1172 ] final -152.74 input   60.00 | X-H torsion
[ 3847 1247 1246 1244 ] final -124.26 input   60.00 | X-H torsion
[ 4507 1931 1930 1928 ] final   21.61 input   60.00 | X-H torsion
[ 3677 1070 1069 1066 ] final  -87.63 input   60.00 | X-H torsion
[ 3525  925  924  922 ] final  144.85 input   59.99 | X-H torsion
[ 4531 1957 1955 1953 ] final   88.54 input   60.00 | X-H torsion

> <Gold.Protein.ActiveResidues>
 PHE267  PRO268  MET310  ASP335  TRP336  MET339  TYR343  THR360  PRO361  ILE363 
 PRO371  SER374  ILE375  ASN378  PHE381  TYR383  GLN384  PHE387  LEU408  LEU417 
 MET419  LEU428  TYR466  MET469  ASN472  ASP496  VAL498  LEU499  MET503  HIS524 
 TRP525 

> <Gold.Protein.RotatedAtoms>
   -2.0555  -30.2672  -29.9376 H   0  0  0  0  0  0  0  0  0  0  0  0  # atno 3525 bound_to 925 
  -11.9186  -23.8181  -31.3630 H   0  0  0  0  0  0  0  0  0  0  0  0  # atno 3677 bound_to 1070
   -9.2582  -36.3581  -33.2703 H   0  0  0  0  0  0  0  0  0  0  0  0  # atno 3781 bound_to 1176
  -15.4819  -27.2168  -37.7186 H   0  0  0  0  0  0  0  0  0  0  0  0  # atno 3847 bound_to 1247
  -13.0216  -25.1420  -38.8901 H   0  0  0  0  0  0  0  0  0  0  0  0  # atno 4507 bound_to 1931
   -2.8179  -33.8070  -36.7190 H   0  0  0  0  0  0  0  0  0  0  0  0  # atno 4531 bound_to 1957
  -10.2904  -37.3388  -32.4825 LP  0  0  0  0  0  0  0  0  0  0  0  0  # atno 5205 bound_to 1176
  -10.5677  -36.9399  -34.0415 LP  0  0  0  0  0  0  0  0  0  0  0  0  # atno 5206 bound_to 1176
  -14.3175  -28.3535  -37.7381 LP  0  0  0  0  0  0  0  0  0  0  0  0  # atno 5215 bound_to 1247
  -15.7629  -28.6729  -37.0486 LP  0  0  0  0  0  0  0  0  0  0  0  0  # atno 5216 bound_to 1247
  -13.6370  -24.7902  -40.3548 LP  0  0  0  0  0  0  0  0  0  0  0  0  # atno 5217 bound_to 1931
  -12.5365  -23.7979  -39.6686 LP  0  0  0  0  0  0  0  0  0  0  0  0  # atno 5218 bound_to 1931
  -11.2175  -22.4197  -30.9143 LP  0  0  0  0  0  0  0  0  0  0  0  0  # atno 5224 bound_to 1070
  -12.7182  -22.7900  -30.3874 LP  0  0  0  0  0  0  0  0  0  0  0  0  # atno 5225 bound_to 1070

$$$$
A_44|SEH_inhibs_minimized|sdf|31|dock4
  -GOLD-   41821 9533D 1   1.00000     0.00000

 47 49  0  0  0  0  0  0  0  0  1 V2000
  -17.3726  -24.8516  -37.4178 C   0  0  0  0  0  0  0  0  0  0  0  0
  -16.6420  -23.0003  -38.7876 C   0  0  0  0  0  0  0  0  0  0  0  0
  -16.0546  -25.0794  -37.0224 C   0  0  0  0  0  0  0  0  0  0  0  0
  -15.3238  -23.2279  -38.3921 C   0  0  0  0  0  0  0  0  0  0  0  0
  -10.7204  -27.6940  -36.8248 C   0  0  0  0  0  0  0  0  0  0  0  0
   -9.7914  -26.1810  -35.1862 C   0  0  0  0  0  0  0  0  0  0  0  0
   -9.7483  -28.6406  -36.5019 C   0  0  0  0  0  0  0  0  0  0  0  0
   -8.8193  -27.1277  -34.8631 C   0  0  0  0  0  0  0  0  0  0  0  0
  -17.6665  -23.8121  -38.3003 C   0  0  0  0  0  0  0  0  0  0  0  0
  -15.0302  -24.2674  -37.5096 C   0  0  0  0  0  0  0  0  0  0  0  0
  -10.7421  -26.4642  -36.1668 C   0  0  0  0  0  0  0  0  0  0  0  0
   -8.7978  -28.3575  -35.5210 C   0  0  0  0  0  0  0  0  0  0  0  0
  -13.0613  -25.7302  -36.8751 C   0  0  0  0  0  0  0  0  0  0  0  0
   -7.7416  -32.2600  -35.2366 C   0  0  0  0  0  0  0  0  0  0  0  0
   -9.5983  -31.0715  -34.1453 C   0  0  0  0  0  0  0  0  0  0  0  0
   -8.7096  -33.3982  -35.5275 C   0  0  0  0  0  0  0  0  0  0  0  0
  -10.4881  -32.2599  -34.4817 C   0  0  0  0  0  0  0  0  0  0  0  0
  -19.0761  -23.5685  -38.7223 C   0  0  0  0  0  0  0  0  0  0  0  0
   -8.5109  -30.9834  -35.1633 N   0  0  0  0  0  0  0  0  0  0  0  0
  -13.6930  -24.4983  -37.1087 N   0  0  0  0  0  0  0  0  0  0  0  0
  -11.7155  -25.5176  -36.4893 N   0  0  0  0  0  0  0  0  0  0  0  0
  -13.5906  -26.8314  -36.9861 O   0  0  0  0  0  0  0  0  0  0  0  0
   -6.6040  -29.5877  -36.1928 O   0  0  0  0  0  0  0  0  0  0  0  0
   -7.1488  -29.3160  -33.7480 O   0  0  0  0  0  0  0  0  0  0  0  0
   -9.7175  -33.4631  -34.5161 O   0  0  0  0  0  0  0  0  0  0  0  0
  -19.8402  -24.6984  -38.6766 F   0  0  0  0  0  0  0  0  0  0  0  0
  -19.7291  -22.6532  -37.9469 F   0  0  0  0  0  0  0  0  0  0  0  0
  -19.1914  -23.0998  -39.9999 F   0  0  0  0  0  0  0  0  0  0  0  0
   -7.5671  -29.5557  -35.1127 S   0  0  0  0  0  0  0  0  0  0  0  0
  -18.1643  -25.4892  -37.0331 H   0  0  0  0  0  0  0  0  0  0  0  0
  -16.8618  -22.1879  -39.4749 H   0  0  0  0  0  0  0  0  0  0  0  0
  -15.8375  -25.8925  -36.3344 H   0  0  0  0  0  0  0  0  0  0  0  0
  -14.5335  -22.5891  -38.7783 H   0  0  0  0  0  0  0  0  0  0  0  0
  -11.4562  -27.9251  -37.5908 H   0  0  0  0  0  0  0  0  0  0  0  0
   -9.7986  -25.2258  -34.6674 H   0  0  0  0  0  0  0  0  0  0  0  0
   -9.7398  -29.5954  -37.0209 H   0  0  0  0  0  0  0  0  0  0  0  0
   -8.0835  -26.8971  -34.0974 H   0  0  0  0  0  0  0  0  0  0  0  0
   -7.2346  -32.4253  -34.2789 H   0  0  0  0  0  0  0  0  0  0  0  0
   -6.9940  -32.1990  -36.0338 H   0  0  0  0  0  0  0  0  0  0  0  0
  -10.1924  -30.1522  -34.1559 H   0  0  0  0  0  0  0  0  0  0  0  0
   -9.1482  -31.1988  -33.1539 H   0  0  0  0  0  0  0  0  0  0  0  0
   -9.1860  -33.2809  -36.5082 H   0  0  0  0  0  0  0  0  0  0  0  0
   -8.1748  -34.3531  -35.5275 H   0  0  0  0  0  0  0  0  0  0  0  0
  -11.2600  -32.3785  -33.7150 H   0  0  0  0  0  0  0  0  0  0  0  0
  -10.9925  -32.1253  -35.4461 H   0  0  0  0  0  0  0  0  0  0  0  0
  -13.1188  -23.6700  -36.9734 H   0  0  0  0  0  0  0  0  0  0  0  0
  -11.4302  -24.5337  -36.4439 H   0  0  0  0  0  0  0  0  0  0  0  0
  1  3  1  0  0  0  0
  1  9  2  0  0  0  0
  2  4  2  0  0  0  0
  2  9  1  0  0  0  0
  3 10  2  0  0  0  0
  4 10  1  0  0  0  0
  5  7  1  0  0  0  0
  5 11  2  0  0  0  0
  6  8  2  0  0  0  0
  6 11  1  0  0  0  0
  7 12  2  0  0  0  0
  8 12  1  0  0  0  0
  9 18  1  0  0  0  0
 10 20  1  0  0  0  0
 11 21  1  0  0  0  0
 12 29  1  0  0  0  0
 13 20  1  0  0  0  0
 13 21  1  0  0  0  0
 13 22  2  0  0  0  0
 14 16  1  0  0  0  0
 14 19  1  0  0  0  0
 15 17  1  0  0  0  0
 15 19  1  0  0  0  0
 16 25  1  0  0  0  0
 17 25  1  0  0  0  0
 18 26  1  0  0  0  0
 18 27  1  0  0  0  0
 18 28  1  0  0  0  0
 19 29  1  0  0  0  0
 23 29  2  0  0  0  0
 24 29  2  0  0  0  0
  1 30  1  0  0  0  0
  2 31  1  0  0  0  0
  3 32  1  0  0  0  0
  4 33  1  0  0  0  0
  5 34  1  0  0  0  0
  6 35  1  0  0  0  0
  7 36  1  0  0  0  0
  8 37  1  0  0  0  0
 14 38  1  0  0  0  0
 14 39  1  0  0  0  0
 15 40  1  0  0  0  0
 15 41  1  0  0  0  0
 16 42  1  0  0  0  0
 16 43  1  0  0  0  0
 17 44  1  0  0  0  0
 17 45  1  0  0  0  0
 20 46  1  0  0  0  0
 21 47  1  0  0  0  0
M  END
> <Name>
A_44

> <SourceTag>
A_44

> <Gold.Version>
5.2

> <Gold.Id.Protein>
6HGV|6HGV_protein|mol2

> <Gold.Goldscore.Fitness>
67.4703

> <Gold.Goldscore.Internal.Vdw>
2.6377

> <Gold.Goldscore.Internal.Torsion>
-7.8394

> <Gold.Goldscore.External.Vdw>
47.1479

> <Gold.Goldscore.Internal.HBond>
0.0000

> <Gold.Goldscore.External.HBond>
2.8651

> <Gold.Goldscore.Internal.Correction>
-4.9785

> <Gold.Goldscore.Hbonds>
donor molecule, donor type, donor heavy atom, donor atom, acceptor molecule, acceptor atom, score
      P1  H  1247  3847       L1    22  0.14
      P1  H  1994  4571       L1    23  0.05
      L1  H    20    46       P1   854  0.41

> <Gold.Goldscore.Internal.Vdw.Weighted>
2.6377

> <Gold.Goldscore.Internal.Torsion.Weighted>
-7.8394

> <Gold.Goldscore.External.Vdw.Weighted>
64.8283

> <Gold.Goldscore.Internal.HBond.Weighted>
0.0000

> <Gold.Goldscore.External.HBond.Weighted>
2.8651

> <Gold.Goldscore.Internal.Correction.Weighted>
-4.9785

> <Gold.Protein.RotatedTorsions>
[ 3781 1176 1175 1172 ] final  177.08 input   60.00 | X-H torsion
[ 3847 1247 1246 1244 ] final  166.09 input   60.00 | X-H torsion
[ 4507 1931 1930 1928 ] final  -65.33 input   60.00 | X-H torsion
[ 3677 1070 1069 1066 ] final  -81.07 input   60.00 | X-H torsion
[ 3525  925  924  922 ] final  -45.44 input   59.99 | X-H torsion
[ 4531 1957 1955 1953 ] final   73.70 input   60.00 | X-H torsion

> <Gold.Protein.ActiveResidues>
 PHE267  PRO268  MET310  ASP335  TRP336  MET339  TYR343  THR360  PRO361  ILE363 
 PRO371  SER374  ILE375  ASN378  PHE381  TYR383  GLN384  PHE387  LEU408  LEU417 
 MET419  LEU428  TYR466  MET469  ASN472  ASP496  VAL498  LEU499  MET503  HIS524 
 TRP525 

> <Gold.Protein.RotatedAtoms>
   -3.7638  -29.5376  -29.7720 H   0  0  0  0  0  0  0  0  0  0  0  0  # atno 3525 bound_to 925 
  -12.0171  -23.8371  -31.3254 H   0  0  0  0  0  0  0  0  0  0  0  0  # atno 3677 bound_to 1070
   -9.2837  -36.5436  -32.8204 H   0  0  0  0  0  0  0  0  0  0  0  0  # atno 3781 bound_to 1176
  -14.5137  -27.6079  -37.9490 H   0  0  0  0  0  0  0  0  0  0  0  0  # atno 3847 bound_to 1247
  -13.6915  -25.1770  -39.9897 H   0  0  0  0  0  0  0  0  0  0  0  0  # atno 4507 bound_to 1931
   -2.9661  -33.6185  -36.6876 H   0  0  0  0  0  0  0  0  0  0  0  0  # atno 4531 bound_to 1957
  -10.6373  -37.4467  -32.8125 LP  0  0  0  0  0  0  0  0  0  0  0  0  # atno 5205 bound_to 1176
  -10.1950  -36.6451  -34.1647 LP  0  0  0  0  0  0  0  0  0  0  0  0  # atno 5206 bound_to 1176
  -15.0367  -28.9662  -37.2214 LP  0  0  0  0  0  0  0  0  0  0  0  0  # atno 5215 bound_to 1247
  -16.0188  -27.6664  -37.3332 LP  0  0  0  0  0  0  0  0  0  0  0  0  # atno 5216 bound_to 1247
  -12.8156  -23.8125  -40.1267 LP  0  0  0  0  0  0  0  0  0  0  0  0  # atno 5217 bound_to 1931
  -12.6832  -24.7404  -38.7894 LP  0  0  0  0  0  0  0  0  0  0  0  0  # atno 5218 bound_to 1931
  -11.1696  -22.4917  -30.9788 LP  0  0  0  0  0  0  0  0  0  0  0  0  # atno 5224 bound_to 1070
  -12.6669  -22.6989  -30.3607 LP  0  0  0  0  0  0  0  0  0  0  0  0  # atno 5225 bound_to 1070

$$$$
A_46|SEH_inhibs_minimized|sdf|32|dock5
  -GOLD-   41821 9553D 1   1.00000     0.00000

 59 62  0  0  0  0  0  0  0  0  1 V2000
   -5.8822  -32.8496  -34.7489 C   0  0  0  0  0  0  0  0  0  0  0  0
   -5.7869  -30.7723  -33.5190 C   0  0  0  0  0  0  0  0  0  0  0  0
   -9.6322  -33.1713  -32.3509 C   0  0  0  0  0  0  0  0  0  0  0  0
   -7.4697  -32.5629  -31.4616 C   0  0  0  0  0  0  0  0  0  0  0  0
   -4.5010  -32.8019  -34.9366 C   0  0  0  0  0  0  0  0  0  0  0  0
   -4.4056  -30.7245  -33.7066 C   0  0  0  0  0  0  0  0  0  0  0  0
   -9.9568  -33.7856  -31.1415 C   0  0  0  0  0  0  0  0  0  0  0  0
   -7.7943  -33.1771  -30.2521 C   0  0  0  0  0  0  0  0  0  0  0  0
  -17.1513  -25.2236  -37.7627 C   0  0  0  0  0  0  0  0  0  0  0  0
  -15.8649  -24.8482  -38.0821 C   0  0  0  0  0  0  0  0  0  0  0  0
  -16.4693  -25.7601  -35.6469 C   0  0  0  0  0  0  0  0  0  0  0  0
   -6.5252  -31.8349  -34.0399 C   0  0  0  0  0  0  0  0  0  0  0  0
   -8.3886  -32.5598  -32.5110 C   0  0  0  0  0  0  0  0  0  0  0  0
   -3.7626  -31.7393  -34.4155 C   0  0  0  0  0  0  0  0  0  0  0  0
   -9.0378  -33.7884  -30.0920 C   0  0  0  0  0  0  0  0  0  0  0  0
  -15.1829  -25.3847  -35.9663 C   0  0  0  0  0  0  0  0  0  0  0  0
   -9.2233  -27.4911  -35.1510 C   0  0  0  0  0  0  0  0  0  0  0  0
  -11.8992  -25.2944  -34.3174 C   0  0  0  0  0  0  0  0  0  0  0  0
  -12.5327  -26.6444  -36.3519 C   0  0  0  0  0  0  0  0  0  0  0  0
  -10.4398  -25.3677  -34.7579 C   0  0  0  0  0  0  0  0  0  0  0  0
  -11.0606  -26.6742  -36.7509 C   0  0  0  0  0  0  0  0  0  0  0  0
  -12.8484  -25.4037  -35.5122 C   0  0  0  0  0  0  0  0  0  0  0  0
   -8.7338  -30.5154  -34.0307 C   0  0  0  0  0  0  0  0  0  0  0  0
   -8.3989  -29.8228  -35.3537 C   0  0  0  0  0  0  0  0  0  0  0  0
   -8.0339  -31.8874  -33.8350 C   0  0  0  0  0  0  0  0  0  0  0  0
  -17.4766  -25.6864  -36.5393 N   0  0  0  0  0  0  0  0  0  0  0  0
  -14.8576  -24.9220  -37.1896 N   0  0  0  0  0  0  0  0  0  0  0  0
  -10.2073  -26.5750  -35.5569 N   0  0  0  0  0  0  0  0  0  0  0  0
   -9.3344  -28.7700  -35.6824 N   0  0  0  0  0  0  0  0  0  0  0  0
   -8.3147  -27.1924  -34.3684 O   0  0  0  0  0  0  0  0  0  0  0  0
  -14.1854  -25.4742  -35.0313 O   0  0  0  0  0  0  0  0  0  0  0  0
   -2.4363  -31.6927  -34.5961 F   0  0  0  0  0  0  0  0  0  0  0  0
   -9.3488  -34.3787  -28.9307 F   0  0  0  0  0  0  0  0  0  0  0  0
   -6.4494  -33.6811  -35.1588 H   0  0  0  0  0  0  0  0  0  0  0  0
   -6.2797  -29.9769  -32.9659 H   0  0  0  0  0  0  0  0  0  0  0  0
  -10.3542  -33.1743  -33.1632 H   0  0  0  0  0  0  0  0  0  0  0  0
   -6.4983  -32.0895  -31.5778 H   0  0  0  0  0  0  0  0  0  0  0  0
   -4.0004  -33.5915  -35.4890 H   0  0  0  0  0  0  0  0  0  0  0  0
   -3.8309  -29.8971  -33.3014 H   0  0  0  0  0  0  0  0  0  0  0  0
  -10.9246  -34.2622  -31.0170 H   0  0  0  0  0  0  0  0  0  0  0  0
   -7.0787  -33.1797  -29.4353 H   0  0  0  0  0  0  0  0  0  0  0  0
  -17.9601  -25.1640  -38.4804 H   0  0  0  0  0  0  0  0  0  0  0  0
  -15.6043  -24.4765  -39.0654 H   0  0  0  0  0  0  0  0  0  0  0  0
  -16.7355  -26.1325  -34.6647 H   0  0  0  0  0  0  0  0  0  0  0  0
  -12.1142  -26.1036  -33.6068 H   0  0  0  0  0  0  0  0  0  0  0  0
  -12.0866  -24.3600  -33.7755 H   0  0  0  0  0  0  0  0  0  0  0  0
  -13.1686  -26.6615  -37.2448 H   0  0  0  0  0  0  0  0  0  0  0  0
  -12.7853  -27.5477  -35.7814 H   0  0  0  0  0  0  0  0  0  0  0  0
  -10.1797  -24.5035  -35.3804 H   0  0  0  0  0  0  0  0  0  0  0  0
   -9.7899  -25.3461  -33.8779 H   0  0  0  0  0  0  0  0  0  0  0  0
  -10.8531  -27.5601  -37.3504 H   0  0  0  0  0  0  0  0  0  0  0  0
  -10.8250  -25.8102  -37.3846 H   0  0  0  0  0  0  0  0  0  0  0  0
  -12.7608  -24.5026  -36.1309 H   0  0  0  0  0  0  0  0  0  0  0  0
   -8.4778  -29.8256  -33.2179 H   0  0  0  0  0  0  0  0  0  0  0  0
   -9.8215  -30.6616  -33.9800 H   0  0  0  0  0  0  0  0  0  0  0  0
   -8.3786  -30.5272  -36.1902 H   0  0  0  0  0  0  0  0  0  0  0  0
   -7.4100  -29.3577  -35.2858 H   0  0  0  0  0  0  0  0  0  0  0  0
   -8.4519  -32.5352  -34.6192 H   0  0  0  0  0  0  0  0  0  0  0  0
  -10.0935  -28.9712  -36.3192 H   0  0  0  0  0  0  0  0  0  0  0  0
  1  5  1  0  0  0  0
  1 12  2  0  0  0  0
  2  6  2  0  0  0  0
  2 12  1  0  0  0  0
  3  7  1  0  0  0  0
  3 13  2  0  0  0  0
  4  8  2  0  0  0  0
  4 13  1  0  0  0  0
  5 14  2  0  0  0  0
  6 14  1  0  0  0  0
  7 15  2  0  0  0  0
  8 15  1  0  0  0  0
  9 10  2  0  0  0  0
  9 26  1  0  0  0  0
 10 27  1  0  0  0  0
 11 16  1  0  0  0  0
 11 26  2  0  0  0  0
 12 25  1  0  0  0  0
 13 25  1  0  0  0  0
 14 32  1  0  0  0  0
 15 33  1  0  0  0  0
 16 27  2  0  0  0  0
 16 31  1  0  0  0  0
 17 28  1  0  0  0  0
 17 29  1  0  0  0  0
 17 30  2  0  0  0  0
 18 20  1  0  0  0  0
 18 22  1  0  0  0  0
 19 21  1  0  0  0  0
 19 22  1  0  0  0  0
 20 28  1  0  0  0  0
 21 28  1  0  0  0  0
 22 31  1  0  0  0  0
 23 24  1  0  0  0  0
 23 25  1  0  0  0  0
 24 29  1  0  0  0  0
  1 34  1  0  0  0  0
  2 35  1  0  0  0  0
  3 36  1  0  0  0  0
  4 37  1  0  0  0  0
  5 38  1  0  0  0  0
  6 39  1  0  0  0  0
  7 40  1  0  0  0  0
  8 41  1  0  0  0  0
  9 42  1  0  0  0  0
 10 43  1  0  0  0  0
 11 44  1  0  0  0  0
 18 45  1  0  0  0  0
 18 46  1  0  0  0  0
 19 47  1  0  0  0  0
 19 48  1  0  0  0  0
 20 49  1  0  0  0  0
 20 50  1  0  0  0  0
 21 51  1  0  0  0  0
 21 52  1  0  0  0  0
 22 53  1  0  0  0  0
 23 54  1  0  0  0  0
 23 55  1  0  0  0  0
 24 56  1  0  0  0  0
 24 57  1  0  0  0  0
 25 58  1  0  0  0  0
 29 59  1  0  0  0  0
M  END
> <Name>
A_46

> <SourceTag>
A_46

> <Gold.Version>
5.2

> <Gold.Id.Protein>
6HGV|6HGV_protein|mol2

> <Gold.Goldscore.Fitness>
73.2125

> <Gold.Goldscore.Internal.Vdw>
-11.2448

> <Gold.Goldscore.Internal.Torsion>
-5.1655

> <Gold.Goldscore.External.Vdw>
53.6337

> <Gold.Goldscore.Internal.HBond>
0.0000

> <Gold.Goldscore.External.HBond>
0.0000

> <Gold.Goldscore.Internal.Correction>
-15.8764

> <Gold.Goldscore.Internal.Vdw.Weighted>
-11.2448

> <Gold.Goldscore.Internal.Torsion.Weighted>
-5.1655

> <Gold.Goldscore.External.Vdw.Weighted>
73.7464

> <Gold.Goldscore.Internal.HBond.Weighted>
0.0000

> <Gold.Goldscore.External.HBond.Weighted>
0.0000

> <Gold.Goldscore.Internal.Correction.Weighted>
-15.8764

> <Gold.Protein.RotatedTorsions>
[ 3781 1176 1175 1172 ] final  170.90 input   60.00 | X-H torsion
[ 3847 1247 1246 1244 ] final  -26.15 input   60.00 | X-H torsion
[ 4507 1931 1930 1928 ] final   82.84 input   60.00 | X-H torsion
[ 3677 1070 1069 1066 ] final  -78.51 input   60.00 | X-H torsion
[ 3525  925  924  922 ] final   61.74 input   59.99 | X-H torsion
[ 4531 1957 1955 1953 ] final  -63.91 input   60.00 | X-H torsion

> <Gold.Protein.ActiveResidues>
 PHE267  PRO268  MET310  ASP335  TRP336  MET339  TYR343  THR360  PRO361  ILE363 
 PRO371  SER374  ILE375  ASN378  PHE381  TYR383  GLN384  PHE387  LEU408  LEU417 
 MET419  LEU428  TYR466  MET469  ASN472  ASP496  VAL498  LEU499  MET503  HIS524 
 TRP525 

> <Gold.Protein.RotatedAtoms>
   -2.7793  -29.8669  -30.8643 H   0  0  0  0  0  0  0  0  0  0  0  0  # atno 3525 bound_to 925 
  -12.0553  -23.8415  -31.3091 H   0  0  0  0  0  0  0  0  0  0  0  0  # atno 3677 bound_to 1070
   -9.3153  -36.5951  -32.7395 H   0  0  0  0  0  0  0  0  0  0  0  0  # atno 3781 bound_to 1176
  -15.9676  -28.3827  -37.0820 H   0  0  0  0  0  0  0  0  0  0  0  0  # atno 3847 bound_to 1247
  -12.4904  -24.3512  -38.9326 H   0  0  0  0  0  0  0  0  0  0  0  0  # atno 4507 bound_to 1931
   -1.9187  -32.2326  -36.8628 H   0  0  0  0  0  0  0  0  0  0  0  0  # atno 4531 bound_to 1957
  -10.6907  -37.4500  -32.8989 LP  0  0  0  0  0  0  0  0  0  0  0  0  # atno 5205 bound_to 1176
  -10.1097  -36.5901  -34.1597 LP  0  0  0  0  0  0  0  0  0  0  0  0  # atno 5206 bound_to 1176
  -15.1508  -27.2038  -37.8508 LP  0  0  0  0  0  0  0  0  0  0  0  0  # atno 5215 bound_to 1247
  -14.4405  -28.6485  -37.5770 LP  0  0  0  0  0  0  0  0  0  0  0  0  # atno 5216 bound_to 1247
  -13.5868  -25.3616  -39.5845 LP  0  0  0  0  0  0  0  0  0  0  0  0  # atno 5217 bound_to 1931
  -13.1217  -24.0230  -40.3961 LP  0  0  0  0  0  0  0  0  0  0  0  0  # atno 5218 bound_to 1931
  -11.1537  -22.5217  -31.0037 LP  0  0  0  0  0  0  0  0  0  0  0  0  # atno 5224 bound_to 1070
  -12.6443  -22.6644  -30.3522 LP  0  0  0  0  0  0  0  0  0  0  0  0  # atno 5225 bound_to 1070

$$$$
A_74|SEH_inhibs_minimized|sdf|45|dock4
  -GOLD-   4182110273D 1   1.00000     0.00000

 46 47  0  0  0  0  0  0  0  0  1 V2000
  -16.5784  -25.4066  -37.8099 C   0  0  0  0  0  0  0  0  0  0  0  0
  -17.7336  -25.2726  -35.6922 C   0  0  0  0  0  0  0  0  0  0  0  0
  -17.7983  -25.3212  -38.4808 C   0  0  0  0  0  0  0  0  0  0  0  0
  -18.9535  -25.1873  -36.3630 C   0  0  0  0  0  0  0  0  0  0  0  0
  -16.5461  -25.3823  -36.4155 C   0  0  0  0  0  0  0  0  0  0  0  0
  -18.9859  -25.2115  -37.7573 C   0  0  0  0  0  0  0  0  0  0  0  0
  -14.0325  -25.2014  -36.2378 C   0  0  0  0  0  0  0  0  0  0  0  0
  -11.1121  -26.1706  -36.5251 C   0  0  0  0  0  0  0  0  0  0  0  0
  -10.8723  -25.3509  -34.1526 C   0  0  0  0  0  0  0  0  0  0  0  0
  -11.0001  -27.6069  -36.0169 C   0  0  0  0  0  0  0  0  0  0  0  0
  -10.7778  -26.8022  -33.6867 C   0  0  0  0  0  0  0  0  0  0  0  0
  -11.6545  -25.2109  -35.4614 C   0  0  0  0  0  0  0  0  0  0  0  0
   -7.2164  -30.3802  -34.5779 C   0  0  0  0  0  0  0  0  0  0  0  0
   -8.0010  -29.1414  -34.9476 C   0  0  0  0  0  0  0  0  0  0  0  0
  -20.4491  -23.9553  -39.1693 C   0  0  0  0  0  0  0  0  0  0  0  0
  -10.1820  -27.6370  -34.7698 N   0  0  0  0  0  0  0  0  0  0  0  0
  -15.3090  -25.4693  -35.7351 N   0  0  0  0  0  0  0  0  0  0  0  0
  -13.0695  -25.4067  -35.2452 N   0  0  0  0  0  0  0  0  0  0  0  0
  -13.7568  -24.8372  -37.3784 O   0  0  0  0  0  0  0  0  0  0  0  0
  -10.3939  -30.1887  -35.0168 O   0  0  0  0  0  0  0  0  0  0  0  0
   -9.5473  -29.2182  -32.8426 O   0  0  0  0  0  0  0  0  0  0  0  0
  -20.1759  -25.1292  -38.4126 O   0  0  0  0  0  0  0  0  0  0  0  0
  -20.3760  -22.8509  -38.3962 F   0  0  0  0  0  0  0  0  0  0  0  0
  -21.7064  -24.0367  -39.6611 F   0  0  0  0  0  0  0  0  0  0  0  0
  -19.6009  -23.8416  -40.2133 F   0  0  0  0  0  0  0  0  0  0  0  0
   -9.6457  -29.1912  -34.2848 S   0  0  0  0  0  0  0  0  0  0  0  0
  -15.6589  -25.4918  -38.3837 H   0  0  0  0  0  0  0  0  0  0  0  0
  -17.7203  -25.2537  -34.6054 H   0  0  0  0  0  0  0  0  0  0  0  0
  -17.8172  -25.3401  -39.5669 H   0  0  0  0  0  0  0  0  0  0  0  0
  -19.8752  -25.1008  -35.7939 H   0  0  0  0  0  0  0  0  0  0  0  0
  -10.1144  -25.8267  -36.8274 H   0  0  0  0  0  0  0  0  0  0  0  0
  -11.7418  -26.1487  -37.4225 H   0  0  0  0  0  0  0  0  0  0  0  0
  -11.3297  -24.7430  -33.3631 H   0  0  0  0  0  0  0  0  0  0  0  0
   -9.8573  -24.9630  -34.3084 H   0  0  0  0  0  0  0  0  0  0  0  0
  -11.9913  -28.0301  -35.8190 H   0  0  0  0  0  0  0  0  0  0  0  0
  -10.5136  -28.2169  -36.7858 H   0  0  0  0  0  0  0  0  0  0  0  0
  -10.1372  -26.8472  -32.7991 H   0  0  0  0  0  0  0  0  0  0  0  0
  -11.7651  -27.1941  -33.4170 H   0  0  0  0  0  0  0  0  0  0  0  0
  -11.5555  -24.1787  -35.8269 H   0  0  0  0  0  0  0  0  0  0  0  0
   -6.2509  -30.3893  -35.0922 H   0  0  0  0  0  0  0  0  0  0  0  0
   -7.0313  -30.4201  -33.4994 H   0  0  0  0  0  0  0  0  0  0  0  0
   -7.7620  -31.2879  -34.8556 H   0  0  0  0  0  0  0  0  0  0  0  0
   -8.0937  -29.0461  -36.0330 H   0  0  0  0  0  0  0  0  0  0  0  0
   -7.5213  -28.2417  -34.5525 H   0  0  0  0  0  0  0  0  0  0  0  0
  -15.3538  -25.7623  -34.7624 H   0  0  0  0  0  0  0  0  0  0  0  0
  -13.3798  -25.7080  -34.3274 H   0  0  0  0  0  0  0  0  0  0  0  0
  1  3  1  0  0  0  0
  1  5  2  0  0  0  0
  2  4  2  0  0  0  0
  2  5  1  0  0  0  0
  3  6  2  0  0  0  0
  4  6  1  0  0  0  0
  5 17  1  0  0  0  0
  6 22  1  0  0  0  0
  7 17  1  0  0  0  0
  7 18  1  0  0  0  0
  7 19  2  0  0  0  0
  8 10  1  0  0  0  0
  8 12  1  0  0  0  0
  9 11  1  0  0  0  0
  9 12  1  0  0  0  0
 10 16  1  0  0  0  0
 11 16  1  0  0  0  0
 12 18  1  0  0  0  0
 13 14  1  0  0  0  0
 14 26  1  0  0  0  0
 15 22  1  0  0  0  0
 15 23  1  0  0  0  0
 15 24  1  0  0  0  0
 15 25  1  0  0  0  0
 16 26  1  0  0  0  0
 20 26  2  0  0  0  0
 21 26  2  0  0  0  0
  1 27  1  0  0  0  0
  2 28  1  0  0  0  0
  3 29  1  0  0  0  0
  4 30  1  0  0  0  0
  8 31  1  0  0  0  0
  8 32  1  0  0  0  0
  9 33  1  0  0  0  0
  9 34  1  0  0  0  0
 10 35  1  0  0  0  0
 10 36  1  0  0  0  0
 11 37  1  0  0  0  0
 11 38  1  0  0  0  0
 12 39  1  0  0  0  0
 13 40  1  0  0  0  0
 13 41  1  0  0  0  0
 13 42  1  0  0  0  0
 14 43  1  0  0  0  0
 14 44  1  0  0  0  0
 17 45  1  0  0  0  0
 18 46  1  0  0  0  0
M  END
> <Name>
A_74

> <SourceTag>
A_74

> <Gold.Version>
5.2

> <Gold.Id.Protein>
6HGV|6HGV_protein|mol2

> <Gold.Goldscore.Fitness>
61.9569

> <Gold.Goldscore.Internal.Vdw>
-0.3713

> <Gold.Goldscore.Internal.Torsion>
-4.6561

> <Gold.Goldscore.External.Vdw>
44.4154

> <Gold.Goldscore.Internal.HBond>
0.0000

> <Gold.Goldscore.External.HBond>
2.3738

> <Gold.Goldscore.Internal.Correction>
-3.5394

> <Gold.Goldscore.Hbonds>
donor molecule, donor type, donor heavy atom, donor atom, acceptor molecule, acceptor atom, score
      P1  H  1256  3854       L1    20  0.80
      P1  H  1931  4507       L1    19  0.38

> <Gold.Goldscore.Internal.Vdw.Weighted>
-0.3713

> <Gold.Goldscore.Internal.Torsion.Weighted>
-4.6561

> <Gold.Goldscore.External.Vdw.Weighted>
61.0711

> <Gold.Goldscore.Internal.HBond.Weighted>
0.0000

> <Gold.Goldscore.External.HBond.Weighted>
2.3738

> <Gold.Goldscore.Internal.Correction.Weighted>
-3.5394

> <Gold.Protein.RotatedTorsions>
[ 3781 1176 1175 1172 ] final   -9.24 input   60.00 | X-H torsion
[ 3847 1247 1246 1244 ] final  147.72 input   60.00 | X-H torsion
[ 4507 1931 1930 1928 ] final   27.95 input   60.00 | X-H torsion
[ 3677 1070 1069 1066 ] final  -85.75 input   60.00 | X-H torsion
[ 3525  925  924  922 ] final  107.14 input   59.99 | X-H torsion
[ 4531 1957 1955 1953 ] final   10.51 input   60.00 | X-H torsion

> <Gold.Protein.ActiveResidues>
 PHE267  PRO268  MET310  ASP335  TRP336  MET339  TYR343  THR360  PRO361  ILE363 
 PRO371  SER374  ILE375  ASN378  PHE381  TYR383  GLN384  PHE387  LEU408  LEU417 
 MET419  LEU428  TYR466  MET469  ASN472  ASP496  VAL498  LEU499  MET503  HIS524 
 TRP525 

> <Gold.Protein.RotatedAtoms>
   -2.2154  -30.1453  -30.5084 H   0  0  0  0  0  0  0  0  0  0  0  0  # atno 3525 bound_to 925 
  -11.9469  -23.8246  -31.3528 H   0  0  0  0  0  0  0  0  0  0  0  0  # atno 3677 bound_to 1070
  -10.7559  -37.1616  -33.7928 H   0  0  0  0  0  0  0  0  0  0  0  0  # atno 3781 bound_to 1176
  -14.3707  -27.8667  -37.9062 H   0  0  0  0  0  0  0  0  0  0  0  0  # atno 3847 bound_to 1247
  -12.9521  -25.0757  -38.8512 H   0  0  0  0  0  0  0  0  0  0  0  0  # atno 4507 bound_to 1931
   -2.9590  -32.6375  -36.6720 H   0  0  0  0  0  0  0  0  0  0  0  0  # atno 4531 bound_to 1957
   -9.3828  -36.3042  -33.6281 LP  0  0  0  0  0  0  0  0  0  0  0  0  # atno 5205 bound_to 1176
   -9.9669  -37.1653  -32.3696 LP  0  0  0  0  0  0  0  0  0  0  0  0  # atno 5206 bound_to 1176
  -15.3192  -28.9324  -37.1235 LP  0  0  0  0  0  0  0  0  0  0  0  0  # atno 5215 bound_to 1247
  -15.8803  -27.4395  -37.4743 LP  0  0  0  0  0  0  0  0  0  0  0  0  # atno 5216 bound_to 1247
  -13.6646  -24.8748  -40.3004 LP  0  0  0  0  0  0  0  0  0  0  0  0  # atno 5217 bound_to 1931
  -12.5789  -23.7801  -39.7623 LP  0  0  0  0  0  0  0  0  0  0  0  0  # atno 5218 bound_to 1931
  -11.2028  -22.4396  -30.9329 LP  0  0  0  0  0  0  0  0  0  0  0  0  # atno 5224 bound_to 1070
  -12.7044  -22.7635  -30.3790 LP  0  0  0  0  0  0  0  0  0  0  0  0  # atno 5225 bound_to 1070

$$$$
A_43|SEH_inhibs_minimized|sdf|30|dock2
  -GOLD-   41821 9513D 1   1.00000     0.00000

 47 49  0  0  0  0  0  0  0  0  1 V2000
  -11.1970  -25.4212  -33.6790 C   0  0  0  0  0  0  0  0  0  0  0  0
  -18.8674  -23.2482  -38.3323 C   0  0  0  0  0  0  0  0  0  0  0  0
  -19.2894  -24.5589  -36.3472 C   0  0  0  0  0  0  0  0  0  0  0  0
  -12.2864  -25.0852  -34.4827 C   0  0  0  0  0  0  0  0  0  0  0  0
  -17.5219  -23.6128  -38.2872 C   0  0  0  0  0  0  0  0  0  0  0  0
  -17.9439  -24.9237  -36.3019 C   0  0  0  0  0  0  0  0  0  0  0  0
  -10.3232  -26.4335  -34.0759 C   0  0  0  0  0  0  0  0  0  0  0  0
  -11.6287  -26.7745  -36.0800 C   0  0  0  0  0  0  0  0  0  0  0  0
  -19.7512  -23.7213  -37.3623 C   0  0  0  0  0  0  0  0  0  0  0  0
  -17.0602  -24.4507  -37.2719 C   0  0  0  0  0  0  0  0  0  0  0  0
  -12.5024  -25.7619  -35.6832 C   0  0  0  0  0  0  0  0  0  0  0  0
  -10.5392  -27.1102  -35.2764 C   0  0  0  0  0  0  0  0  0  0  0  0
  -14.9111  -25.0918  -36.0931 C   0  0  0  0  0  0  0  0  0  0  0  0
   -9.8072  -31.0784  -35.7839 C   0  0  0  0  0  0  0  0  0  0  0  0
  -10.6910  -29.8334  -33.8551 C   0  0  0  0  0  0  0  0  0  0  0  0
  -10.8424  -32.1567  -35.4963 C   0  0  0  0  0  0  0  0  0  0  0  0
  -11.6889  -30.9644  -33.6484 C   0  0  0  0  0  0  0  0  0  0  0  0
  -21.1901  -23.3316  -37.4116 C   0  0  0  0  0  0  0  0  0  0  0  0
  -10.3339  -29.7678  -35.3025 N   0  0  0  0  0  0  0  0  0  0  0  0
  -15.6953  -24.8206  -37.2258 N   0  0  0  0  0  0  0  0  0  0  0  0
  -13.5922  -25.4258  -36.4868 N   0  0  0  0  0  0  0  0  0  0  0  0
  -15.3032  -25.0476  -34.9315 O   0  0  0  0  0  0  0  0  0  0  0  0
   -9.3451  -28.3608  -37.2226 O   0  0  0  0  0  0  0  0  0  0  0  0
   -8.2447  -28.2999  -34.9569 O   0  0  0  0  0  0  0  0  0  0  0  0
  -11.1353  -32.2030  -34.0981 O   0  0  0  0  0  0  0  0  0  0  0  0
  -21.7467  -23.2211  -36.1704 F   0  0  0  0  0  0  0  0  0  0  0  0
  -21.4109  -22.1292  -38.0204 F   0  0  0  0  0  0  0  0  0  0  0  0
  -21.9751  -24.2223  -38.0871 F   0  0  0  0  0  0  0  0  0  0  0  0
   -9.4331  -28.3916  -35.7781 S   0  0  0  0  0  0  0  0  0  0  0  0
  -11.0288  -24.8943  -32.7442 H   0  0  0  0  0  0  0  0  0  0  0  0
  -19.2183  -22.5950  -39.1270 H   0  0  0  0  0  0  0  0  0  0  0  0
  -19.9710  -24.9326  -35.5877 H   0  0  0  0  0  0  0  0  0  0  0  0
  -12.9606  -24.2945  -34.1634 H   0  0  0  0  0  0  0  0  0  0  0  0
  -16.8423  -23.2379  -39.0483 H   0  0  0  0  0  0  0  0  0  0  0  0
  -17.5951  -25.5770  -35.5059 H   0  0  0  0  0  0  0  0  0  0  0  0
   -9.4776  -26.6868  -33.4422 H   0  0  0  0  0  0  0  0  0  0  0  0
  -11.7969  -27.3025  -37.0160 H   0  0  0  0  0  0  0  0  0  0  0  0
   -8.8701  -31.2993  -35.2598 H   0  0  0  0  0  0  0  0  0  0  0  0
   -9.6150  -31.0298  -36.8603 H   0  0  0  0  0  0  0  0  0  0  0  0
  -11.1384  -28.8856  -33.5395 H   0  0  0  0  0  0  0  0  0  0  0  0
   -9.7808  -30.0147  -33.2718 H   0  0  0  0  0  0  0  0  0  0  0  0
  -11.7695  -31.9846  -36.0561 H   0  0  0  0  0  0  0  0  0  0  0  0
  -10.4525  -33.1368  -35.7883 H   0  0  0  0  0  0  0  0  0  0  0  0
  -11.9216  -31.0685  -32.5840 H   0  0  0  0  0  0  0  0  0  0  0  0
  -12.6292  -30.7742  -34.1793 H   0  0  0  0  0  0  0  0  0  0  0  0
  -15.2241  -24.8996  -38.1235 H   0  0  0  0  0  0  0  0  0  0  0  0
  -13.4291  -25.4153  -37.4993 H   0  0  0  0  0  0  0  0  0  0  0  0
  1  4  2  0  0  0  0
  1  7  1  0  0  0  0
  2  5  1  0  0  0  0
  2  9  2  0  0  0  0
  3  6  2  0  0  0  0
  3  9  1  0  0  0  0
  4 11  1  0  0  0  0
  5 10  2  0  0  0  0
  6 10  1  0  0  0  0
  7 12  2  0  0  0  0
  8 11  2  0  0  0  0
  8 12  1  0  0  0  0
  9 18  1  0  0  0  0
 10 20  1  0  0  0  0
 11 21  1  0  0  0  0
 12 29  1  0  0  0  0
 13 20  1  0  0  0  0
 13 21  1  0  0  0  0
 13 22  2  0  0  0  0
 14 16  1  0  0  0  0
 14 19  1  0  0  0  0
 15 17  1  0  0  0  0
 15 19  1  0  0  0  0
 16 25  1  0  0  0  0
 17 25  1  0  0  0  0
 18 26  1  0  0  0  0
 18 27  1  0  0  0  0
 18 28  1  0  0  0  0
 19 29  1  0  0  0  0
 23 29  2  0  0  0  0
 24 29  2  0  0  0  0
  1 30  1  0  0  0  0
  2 31  1  0  0  0  0
  3 32  1  0  0  0  0
  4 33  1  0  0  0  0
  5 34  1  0  0  0  0
  6 35  1  0  0  0  0
  7 36  1  0  0  0  0
  8 37  1  0  0  0  0
 14 38  1  0  0  0  0
 14 39  1  0  0  0  0
 15 40  1  0  0  0  0
 15 41  1  0  0  0  0
 16 42  1  0  0  0  0
 16 43  1  0  0  0  0
 17 44  1  0  0  0  0
 17 45  1  0  0  0  0
 20 46  1  0  0  0  0
 21 47  1  0  0  0  0
M  END
> <Name>
A_43

> <SourceTag>
A_43

> <Gold.Version>
5.2

> <Gold.Id.Protein>
6HGV|6HGV_protein|mol2

> <Gold.Goldscore.Fitness>
69.3467

> <Gold.Goldscore.Internal.Vdw>
1.9576

> <Gold.Goldscore.Internal.Torsion>
-7.8035

> <Gold.Goldscore.External.Vdw>
49.1684

> <Gold.Goldscore.Internal.HBond>
0.0000

> <Gold.Goldscore.External.HBond>
2.6540

> <Gold.Goldscore.Internal.Correction>
-4.9320

> <Gold.Goldscore.Hbonds>
donor molecule, donor type, donor heavy atom, donor atom, acceptor molecule, acceptor atom, score
      P1  H  1256  3854       L1    19  0.64
      L1  H    20    46       P1  1931  0.09
      L1  H    21    47       P1  1931  0.60

> <Gold.Goldscore.Internal.Vdw.Weighted>
1.9576

> <Gold.Goldscore.Internal.Torsion.Weighted>
-7.8035

> <Gold.Goldscore.External.Vdw.Weighted>
67.6065

> <Gold.Goldscore.Internal.HBond.Weighted>
0.0000

> <Gold.Goldscore.External.HBond.Weighted>
2.6540

> <Gold.Goldscore.Internal.Correction.Weighted>
-4.9320

> <Gold.Protein.RotatedTorsions>
[ 3781 1176 1175 1172 ] final -110.35 input   60.00 | X-H torsion
[ 3847 1247 1246 1244 ] final  -74.39 input   60.00 | X-H torsion
[ 4507 1931 1930 1928 ] final -107.94 input   60.00 | X-H torsion
[ 3677 1070 1069 1066 ] final  -34.55 input   60.00 | X-H torsion
[ 3525  925  924  922 ] final  -35.62 input   59.99 | X-H torsion
[ 4531 1957 1955 1953 ] final  104.97 input   60.00 | X-H torsion

> <Gold.Protein.ActiveResidues>
 PHE267  PRO268  MET310  ASP335  TRP336  MET339  TYR343  THR360  PRO361  ILE363 
 PRO371  SER374  ILE375  ASN378  PHE381  TYR383  GLN384  PHE387  LEU408  LEU417 
 MET419  LEU428  TYR466  MET469  ASN472  ASP496  VAL498  LEU499  MET503  HIS524 
 TRP525 

> <Gold.Protein.RotatedAtoms>
   -3.7721  -29.5194  -29.9309 H   0  0  0  0  0  0  0  0  0  0  0  0  # atno 3525 bound_to 925 
  -12.6192  -23.6659  -30.9319 H   0  0  0  0  0  0  0  0  0  0  0  0  # atno 3677 bound_to 1070
   -9.5687  -36.3401  -33.8716 H   0  0  0  0  0  0  0  0  0  0  0  0  # atno 3781 bound_to 1176
  -16.0112  -27.6636  -37.3399 H   0  0  0  0  0  0  0  0  0  0  0  0  # atno 3847 bound_to 1247
  -13.5772  -24.6590  -40.4155 H   0  0  0  0  0  0  0  0  0  0  0  0  # atno 4507 bound_to 1931
   -2.6047  -33.9626  -36.7623 H   0  0  0  0  0  0  0  0  0  0  0  0  # atno 4531 bound_to 1957
   -9.7129  -36.9894  -32.3865 LP  0  0  0  0  0  0  0  0  0  0  0  0  # atno 5205 bound_to 1176
  -10.8324  -37.3074  -33.5320 LP  0  0  0  0  0  0  0  0  0  0  0  0  # atno 5206 bound_to 1176
  -14.5034  -27.6100  -37.9495 LP  0  0  0  0  0  0  0  0  0  0  0  0  # atno 5215 bound_to 1247
  -15.0439  -28.9665  -37.2185 LP  0  0  0  0  0  0  0  0  0  0  0  0  # atno 5216 bound_to 1247
  -12.4850  -23.8427  -39.5273 LP  0  0  0  0  0  0  0  0  0  0  0  0  # atno 5217 bound_to 1931
  -13.1290  -25.2319  -38.9599 LP  0  0  0  0  0  0  0  0  0  0  0  0  # atno 5218 bound_to 1931
  -11.1419  -23.1323  -31.3573 LP  0  0  0  0  0  0  0  0  0  0  0  0  # atno 5224 bound_to 1070
  -12.0883  -22.2307  -30.3785 LP  0  0  0  0  0  0  0  0  0  0  0  0  # atno 5225 bound_to 1070

$$$$
A_60|SEH_inhibs_minimized|sdf|41|dock4
  -GOLD-   4182110173D 1   1.00000     0.00000

 63 66  0  0  0  0  0  0  0  0  1 V2000
   -9.1206  -25.9665  -34.5805 C   0  0  0  0  0  0  0  0  0  0  0  0
  -10.1766  -25.1894  -35.0565 C   0  0  0  0  0  0  0  0  0  0  0  0
   -8.9488  -27.2702  -35.0459 C   0  0  0  0  0  0  0  0  0  0  0  0
  -10.8898  -27.0201  -36.4628 C   0  0  0  0  0  0  0  0  0  0  0  0
  -11.0614  -25.7163  -35.9976 C   0  0  0  0  0  0  0  0  0  0  0  0
   -9.8335  -27.7971  -35.9870 C   0  0  0  0  0  0  0  0  0  0  0  0
  -13.3869  -25.3625  -36.9189 C   0  0  0  0  0  0  0  0  0  0  0  0
  -18.3930  -23.7349  -37.6764 C   0  0  0  0  0  0  0  0  0  0  0  0
  -17.8736  -26.0495  -38.4901 C   0  0  0  0  0  0  0  0  0  0  0  0
  -17.4942  -24.0779  -39.9926 C   0  0  0  0  0  0  0  0  0  0  0  0
  -16.4370  -24.9871  -36.7309 C   0  0  0  0  0  0  0  0  0  0  0  0
  -16.0574  -23.0134  -38.2349 C   0  0  0  0  0  0  0  0  0  0  0  0
  -15.5371  -25.3312  -39.0504 C   0  0  0  0  0  0  0  0  0  0  0  0
  -17.8742  -25.1225  -37.2627 C   0  0  0  0  0  0  0  0  0  0  0  0
  -17.4930  -23.1406  -38.7729 C   0  0  0  0  0  0  0  0  0  0  0  0
  -16.9709  -25.4675  -39.5912 C   0  0  0  0  0  0  0  0  0  0  0  0
  -15.5133  -24.3984  -37.8202 C   0  0  0  0  0  0  0  0  0  0  0  0
   -7.4992  -35.5953  -31.5209 C   0  0  0  0  0  0  0  0  0  0  0  0
   -7.0979  -35.4637  -32.9746 C   0  0  0  0  0  0  0  0  0  0  0  0
   -9.0513  -30.0005  -35.5514 C   0  0  0  0  0  0  0  0  0  0  0  0
   -9.3682  -31.4098  -36.0134 C   0  0  0  0  0  0  0  0  0  0  0  0
   -7.7786  -34.5776  -35.0420 C   0  0  0  0  0  0  0  0  0  0  0  0
   -8.8009  -33.6682  -35.6962 C   0  0  0  0  0  0  0  0  0  0  0  0
  -12.1327  -24.9287  -36.4796 N   0  0  0  0  0  0  0  0  0  0  0  0
  -14.1635  -24.2702  -37.3163 N   0  0  0  0  0  0  0  0  0  0  0  0
  -13.7850  -26.5240  -36.9641 O   0  0  0  0  0  0  0  0  0  0  0  0
   -9.6673  -29.0696  -36.4403 O   0  0  0  0  0  0  0  0  0  0  0  0
   -8.0654  -34.6742  -33.6521 O   0  0  0  0  0  0  0  0  0  0  0  0
   -8.5529  -32.3280  -35.2953 O   0  0  0  0  0  0  0  0  0  0  0  0
   -8.4321  -25.5565  -33.8473 H   0  0  0  0  0  0  0  0  0  0  0  0
  -10.3010  -24.1748  -34.6870 H   0  0  0  0  0  0  0  0  0  0  0  0
   -8.1246  -27.8711  -34.6713 H   0  0  0  0  0  0  0  0  0  0  0  0
  -11.5766  -27.4358  -37.1964 H   0  0  0  0  0  0  0  0  0  0  0  0
  -19.4246  -23.8146  -38.0407 H   0  0  0  0  0  0  0  0  0  0  0  0
  -18.4133  -23.0677  -36.8060 H   0  0  0  0  0  0  0  0  0  0  0  0
  -17.5201  -27.0481  -38.2053 H   0  0  0  0  0  0  0  0  0  0  0  0
  -18.8961  -26.1696  -38.8689 H   0  0  0  0  0  0  0  0  0  0  0  0
  -18.5097  -24.1635  -40.3982 H   0  0  0  0  0  0  0  0  0  0  0  0
  -16.8677  -23.6571  -40.7887 H   0  0  0  0  0  0  0  0  0  0  0  0
  -16.4297  -24.3470  -35.8389 H   0  0  0  0  0  0  0  0  0  0  0  0
  -16.0654  -25.9685  -36.4078 H   0  0  0  0  0  0  0  0  0  0  0  0
  -15.4109  -22.5654  -39.0010 H   0  0  0  0  0  0  0  0  0  0  0  0
  -16.0398  -22.3265  -37.3785 H   0  0  0  0  0  0  0  0  0  0  0  0
  -15.1436  -26.3210  -38.7843 H   0  0  0  0  0  0  0  0  0  0  0  0
  -14.8789  -24.9405  -39.8377 H   0  0  0  0  0  0  0  0  0  0  0  0
  -18.5194  -25.5416  -36.4827 H   0  0  0  0  0  0  0  0  0  0  0  0
  -17.8680  -22.1533  -39.0645 H   0  0  0  0  0  0  0  0  0  0  0  0
  -16.9761  -26.1308  -40.4631 H   0  0  0  0  0  0  0  0  0  0  0  0
   -6.8147  -36.2594  -30.9857 H   0  0  0  0  0  0  0  0  0  0  0  0
   -7.4983  -34.6166  -31.0300 H   0  0  0  0  0  0  0  0  0  0  0  0
   -8.5159  -35.9931  -31.4359 H   0  0  0  0  0  0  0  0  0  0  0  0
   -7.0503  -36.4479  -33.4502 H   0  0  0  0  0  0  0  0  0  0  0  0
   -6.1221  -34.9763  -33.0610 H   0  0  0  0  0  0  0  0  0  0  0  0
   -7.9728  -29.8161  -35.5587 H   0  0  0  0  0  0  0  0  0  0  0  0
   -9.4481  -29.8287  -34.5466 H   0  0  0  0  0  0  0  0  0  0  0  0
   -9.1598  -31.5315  -37.0808 H   0  0  0  0  0  0  0  0  0  0  0  0
  -10.4158  -31.6521  -35.8124 H   0  0  0  0  0  0  0  0  0  0  0  0
   -6.7661  -34.1778  -35.1541 H   0  0  0  0  0  0  0  0  0  0  0  0
   -7.8284  -35.5819  -35.4728 H   0  0  0  0  0  0  0  0  0  0  0  0
   -9.8178  -33.9329  -35.3901 H   0  0  0  0  0  0  0  0  0  0  0  0
   -8.7184  -33.7208  -36.7857 H   0  0  0  0  0  0  0  0  0  0  0  0
  -11.9711  -23.9252  -36.5102 H   0  0  0  0  0  0  0  0  0  0  0  0
  -13.7606  -23.3418  -37.2477 H   0  0  0  0  0  0  0  0  0  0  0  0
  1  2  2  0  0  0  0
  1  3  1  0  0  0  0
  2  5  1  0  0  0  0
  3  6  2  0  0  0  0
  4  5  2  0  0  0  0
  4  6  1  0  0  0  0
  5 24  1  0  0  0  0
  6 27  1  0  0  0  0
  7 24  1  0  0  0  0
  7 25  1  0  0  0  0
  7 26  2  0  0  0  0
  8 14  1  0  0  0  0
  8 15  1  0  0  0  0
  9 14  1  0  0  0  0
  9 16  1  0  0  0  0
 10 15  1  0  0  0  0
 10 16  1  0  0  0  0
 11 14  1  0  0  0  0
 11 17  1  0  0  0  0
 12 15  1  0  0  0  0
 12 17  1  0  0  0  0
 13 16  1  0  0  0  0
 13 17  1  0  0  0  0
 17 25  1  0  0  0  0
 18 19  1  0  0  0  0
 19 28  1  0  0  0  0
 20 21  1  0  0  0  0
 20 27  1  0  0  0  0
 21 29  1  0  0  0  0
 22 23  1  0  0  0  0
 22 28  1  0  0  0  0
 23 29  1  0  0  0  0
  1 30  1  0  0  0  0
  2 31  1  0  0  0  0
  3 32  1  0  0  0  0
  4 33  1  0  0  0  0
  8 34  1  0  0  0  0
  8 35  1  0  0  0  0
  9 36  1  0  0  0  0
  9 37  1  0  0  0  0
 10 38  1  0  0  0  0
 10 39  1  0  0  0  0
 11 40  1  0  0  0  0
 11 41  1  0  0  0  0
 12 42  1  0  0  0  0
 12 43  1  0  0  0  0
 13 44  1  0  0  0  0
 13 45  1  0  0  0  0
 14 46  1  0  0  0  0
 15 47  1  0  0  0  0
 16 48  1  0  0  0  0
 18 49  1  0  0  0  0
 18 50  1  0  0  0  0
 18 51  1  0  0  0  0
 19 52  1  0  0  0  0
 19 53  1  0  0  0  0
 20 54  1  0  0  0  0
 20 55  1  0  0  0  0
 21 56  1  0  0  0  0
 21 57  1  0  0  0  0
 22 58  1  0  0  0  0
 22 59  1  0  0  0  0
 23 60  1  0  0  0  0
 23 61  1  0  0  0  0
 24 62  1  0  0  0  0
 25 63  1  0  0  0  0
M  END
> <Name>
A_60

> <SourceTag>
A_60

> <Gold.Version>
5.2

> <Gold.Id.Protein>
6HGV|6HGV_protein|mol2

> <Gold.Goldscore.Fitness>
73.7037

> <Gold.Goldscore.Internal.Vdw>
-10.2281

> <Gold.Goldscore.Internal.Torsion>
-4.2670

> <Gold.Goldscore.External.Vdw>
51.1761

> <Gold.Goldscore.Internal.HBond>
0.0000

> <Gold.Goldscore.External.HBond>
3.6072

> <Gold.Goldscore.Internal.Correction>
-14.2244

> <Gold.Goldscore.Hbonds>
donor molecule, donor type, donor heavy atom, donor atom, acceptor molecule, acceptor atom, score
      L1  H    24    62       P1   854  0.23
      L1  H    25    63       P1   854  0.37

> <Gold.Goldscore.Internal.Vdw.Weighted>
-10.2281

> <Gold.Goldscore.Internal.Torsion.Weighted>
-4.2670

> <Gold.Goldscore.External.Vdw.Weighted>
70.3672

> <Gold.Goldscore.Internal.HBond.Weighted>
0.0000

> <Gold.Goldscore.External.HBond.Weighted>
3.6072

> <Gold.Goldscore.Internal.Correction.Weighted>
-14.2244

> <Gold.Protein.RotatedTorsions>
[ 3781 1176 1175 1172 ] final  -89.45 input   60.00 | X-H torsion
[ 3847 1247 1246 1244 ] final  -18.31 input   60.00 | X-H torsion
[ 4507 1931 1930 1928 ] final  126.21 input   60.00 | X-H torsion
[ 3677 1070 1069 1066 ] final -103.37 input   60.00 | X-H torsion
[ 3525  925  924  922 ] final   51.72 input   59.99 | X-H torsion
[ 4531 1957 1955 1953 ] final  100.03 input   60.00 | X-H torsion

> <Gold.Protein.ActiveResidues>
 PHE267  PRO268  MET310  ASP335  TRP336  MET339  TYR343  THR360  PRO361  ILE363 
 PRO371  SER374  ILE375  ASN378  PHE381  TYR383  GLN384  PHE387  LEU408  LEU417 
 MET419  LEU428  TYR466  MET469  ASN472  ASP496  VAL498  LEU499  MET503  HIS524 
 TRP525 

> <Gold.Protein.RotatedAtoms>
   -2.9289  -29.8011  -30.8697 H   0  0  0  0  0  0  0  0  0  0  0  0  # atno 3525 bound_to 925 
  -11.6864  -23.7303  -31.4272 H   0  0  0  0  0  0  0  0  0  0  0  0  # atno 3677 bound_to 1070
   -9.8285  -36.4406  -34.0660 H   0  0  0  0  0  0  0  0  0  0  0  0  # atno 3781 bound_to 1176
  -15.9048  -28.4928  -37.0645 H   0  0  0  0  0  0  0  0  0  0  0  0  # atno 3847 bound_to 1247
  -12.4638  -23.8864  -39.4443 H   0  0  0  0  0  0  0  0  0  0  0  0  # atno 4507 bound_to 1931
   -2.6734  -33.9224  -36.7485 H   0  0  0  0  0  0  0  0  0  0  0  0  # atno 4531 bound_to 1957
   -9.4735  -36.7816  -32.5150 LP  0  0  0  0  0  0  0  0  0  0  0  0  # atno 5205 bound_to 1176
  -10.8102  -37.4140  -33.2077 LP  0  0  0  0  0  0  0  0  0  0  0  0  # atno 5206 bound_to 1176
  -15.2718  -27.1912  -37.8082 LP  0  0  0  0  0  0  0  0  0  0  0  0  # atno 5215 bound_to 1247
  -14.3827  -28.5502  -37.6372 LP  0  0  0  0  0  0  0  0  0  0  0  0  # atno 5216 bound_to 1247
  -13.1933  -25.2765  -39.0160 LP  0  0  0  0  0  0  0  0  0  0  0  0  # atno 5217 bound_to 1931
  -13.5419  -24.5761  -40.4493 LP  0  0  0  0  0  0  0  0  0  0  0  0  # atno 5218 bound_to 1931
  -11.3702  -22.2802  -30.7598 LP  0  0  0  0  0  0  0  0  0  0  0  0  # atno 5224 bound_to 1070
  -12.7993  -23.0180  -30.4773 LP  0  0  0  0  0  0  0  0  0  0  0  0  # atno 5225 bound_to 1070

$$$$
A_51|SEH_inhibs_minimized|sdf|37|dock4
  -GOLD-   4182110 53D 1   1.00000     0.00000

 66 69  0  0  0  0  0  0  0  0  1 V2000
  -17.6216  -23.4002  -38.0431 C   0  0  0  0  0  0  0  0  0  0  0  0
  -17.7196  -24.9238  -36.1706 C   0  0  0  0  0  0  0  0  0  0  0  0
  -16.2557  -23.6498  -38.1748 C   0  0  0  0  0  0  0  0  0  0  0  0
  -16.3537  -25.1735  -36.3022 C   0  0  0  0  0  0  0  0  0  0  0  0
  -18.3537  -24.0373  -37.0411 C   0  0  0  0  0  0  0  0  0  0  0  0
  -15.6217  -24.5366  -37.3044 C   0  0  0  0  0  0  0  0  0  0  0  0
  -19.7781  -23.7779  -36.9039 C   0  0  0  0  0  0  0  0  0  0  0  0
  -12.3108  -25.5415  -36.1560 C   0  0  0  0  0  0  0  0  0  0  0  0
   -8.0435  -28.7758  -34.7053 C   0  0  0  0  0  0  0  0  0  0  0  0
   -3.8617  -31.9907  -34.5392 C   0  0  0  0  0  0  0  0  0  0  0  0
   -6.0551  -33.0868  -34.0129 C   0  0  0  0  0  0  0  0  0  0  0  0
   -4.7017  -32.0448  -32.1767 C   0  0  0  0  0  0  0  0  0  0  0  0
   -6.0065  -30.9226  -35.2785 C   0  0  0  0  0  0  0  0  0  0  0  0
   -4.6516  -29.8798  -33.4404 C   0  0  0  0  0  0  0  0  0  0  0  0
   -6.8483  -30.9774  -32.9127 C   0  0  0  0  0  0  0  0  0  0  0  0
   -5.2838  -32.2626  -35.0579 C   0  0  0  0  0  0  0  0  0  0  0  0
   -3.9234  -31.2155  -33.2123 C   0  0  0  0  0  0  0  0  0  0  0  0
   -6.1284  -32.3174  -32.6830 C   0  0  0  0  0  0  0  0  0  0  0  0
   -6.0866  -30.1301  -33.9548 C   0  0  0  0  0  0  0  0  0  0  0  0
  -22.2054  -25.4150  -34.6870 C   0  0  0  0  0  0  0  0  0  0  0  0
  -14.1522  -24.8048  -37.4464 C   0  0  0  0  0  0  0  0  0  0  0  0
  -11.8713  -25.7691  -34.7264 C   0  0  0  0  0  0  0  0  0  0  0  0
  -10.3526  -25.8801  -34.5734 C   0  0  0  0  0  0  0  0  0  0  0  0
   -9.7424  -27.0626  -35.3238 C   0  0  0  0  0  0  0  0  0  0  0  0
  -21.7757  -24.5639  -35.8629 C   0  0  0  0  0  0  0  0  0  0  0  0
   -6.7645  -28.8698  -34.1661 N   0  0  0  0  0  0  0  0  0  0  0  0
   -8.4540  -27.4482  -34.7985 N   0  0  0  0  0  0  0  0  0  0  0  0
  -20.4030  -22.9350  -37.5613 O   0  0  0  0  0  0  0  0  0  0  0  0
  -11.6198  -25.7408  -37.1457 O   0  0  0  0  0  0  0  0  0  0  0  0
   -8.7256  -29.7383  -35.0545 O   0  0  0  0  0  0  0  0  0  0  0  0
  -20.3472  -24.5838  -35.9558 O   0  0  0  0  0  0  0  0  0  0  0  0
  -13.6071  -25.1108  -36.1588 O   0  0  0  0  0  0  0  0  0  0  0  0
  -18.1059  -22.7080  -38.7270 H   0  0  0  0  0  0  0  0  0  0  0  0
  -18.2808  -25.4263  -35.3871 H   0  0  0  0  0  0  0  0  0  0  0  0
  -15.6931  -23.1495  -38.9586 H   0  0  0  0  0  0  0  0  0  0  0  0
  -15.8681  -25.8664  -35.6202 H   0  0  0  0  0  0  0  0  0  0  0  0
   -3.3285  -32.9384  -34.3951 H   0  0  0  0  0  0  0  0  0  0  0  0
   -3.2952  -31.4164  -35.2825 H   0  0  0  0  0  0  0  0  0  0  0  0
   -7.0671  -33.3013  -34.3776 H   0  0  0  0  0  0  0  0  0  0  0  0
   -5.5600  -34.0537  -33.8594 H   0  0  0  0  0  0  0  0  0  0  0  0
   -4.1834  -32.9934  -31.9903 H   0  0  0  0  0  0  0  0  0  0  0  0
   -4.7394  -31.5094  -31.2200 H   0  0  0  0  0  0  0  0  0  0  0  0
   -5.4778  -30.3366  -36.0417 H   0  0  0  0  0  0  0  0  0  0  0  0
   -7.0147  -31.1038  -35.6740 H   0  0  0  0  0  0  0  0  0  0  0  0
   -4.6786  -29.3057  -32.5048 H   0  0  0  0  0  0  0  0  0  0  0  0
   -4.0916  -29.2680  -34.1599 H   0  0  0  0  0  0  0  0  0  0  0  0
   -7.8769  -31.1600  -33.2501 H   0  0  0  0  0  0  0  0  0  0  0  0
   -6.9288  -30.4316  -31.9632 H   0  0  0  0  0  0  0  0  0  0  0  0
   -5.2340  -32.8160  -36.0023 H   0  0  0  0  0  0  0  0  0  0  0  0
   -2.9080  -31.0258  -32.8470 H   0  0  0  0  0  0  0  0  0  0  0  0
   -6.6769  -32.9100  -31.9424 H   0  0  0  0  0  0  0  0  0  0  0  0
  -21.7094  -25.0899  -33.7682 H   0  0  0  0  0  0  0  0  0  0  0  0
  -23.2893  -25.3562  -34.5436 H   0  0  0  0  0  0  0  0  0  0  0  0
  -21.9646  -26.4684  -34.8648 H   0  0  0  0  0  0  0  0  0  0  0  0
  -13.9734  -25.6491  -38.1209 H   0  0  0  0  0  0  0  0  0  0  0  0
  -13.6343  -23.9309  -37.8564 H   0  0  0  0  0  0  0  0  0  0  0  0
  -12.2539  -24.9562  -34.0997 H   0  0  0  0  0  0  0  0  0  0  0  0
  -12.3334  -26.7053  -34.3928 H   0  0  0  0  0  0  0  0  0  0  0  0
   -9.8983  -24.9508  -34.9392 H   0  0  0  0  0  0  0  0  0  0  0  0
  -10.0935  -25.9640  -33.5111 H   0  0  0  0  0  0  0  0  0  0  0  0
  -10.3951  -27.9369  -35.2343 H   0  0  0  0  0  0  0  0  0  0  0  0
   -9.6156  -26.8434  -36.3880 H   0  0  0  0  0  0  0  0  0  0  0  0
  -22.1058  -23.5294  -35.7287 H   0  0  0  0  0  0  0  0  0  0  0  0
  -22.1951  -24.9559  -36.7943 H   0  0  0  0  0  0  0  0  0  0  0  0
   -6.2844  -28.0141  -33.9091 H   0  0  0  0  0  0  0  0  0  0  0  0
   -7.8415  -26.7212  -34.4424 H   0  0  0  0  0  0  0  0  0  0  0  0
  1  3  1  0  0  0  0
  1  5  2  0  0  0  0
  2  4  2  0  0  0  0
  2  5  1  0  0  0  0
  3  6  2  0  0  0  0
  4  6  1  0  0  0  0
  5  7  1  0  0  0  0
  6 21  1  0  0  0  0
  7 28  2  0  0  0  0
  7 31  1  0  0  0  0
  8 22  1  0  0  0  0
  8 29  2  0  0  0  0
  8 32  1  0  0  0  0
  9 26  1  0  0  0  0
  9 27  1  0  0  0  0
  9 30  2  0  0  0  0
 10 16  1  0  0  0  0
 10 17  1  0  0  0  0
 11 16  1  0  0  0  0
 11 18  1  0  0  0  0
 12 17  1  0  0  0  0
 12 18  1  0  0  0  0
 13 16  1  0  0  0  0
 13 19  1  0  0  0  0
 14 17  1  0  0  0  0
 14 19  1  0  0  0  0
 15 18  1  0  0  0  0
 15 19  1  0  0  0  0
 19 26  1  0  0  0  0
 20 25  1  0  0  0  0
 21 32  1  0  0  0  0
 22 23  1  0  0  0  0
 23 24  1  0  0  0  0
 24 27  1  0  0  0  0
 25 31  1  0  0  0  0
  1 33  1  0  0  0  0
  2 34  1  0  0  0  0
  3 35  1  0  0  0  0
  4 36  1  0  0  0  0
 10 37  1  0  0  0  0
 10 38  1  0  0  0  0
 11 39  1  0  0  0  0
 11 40  1  0  0  0  0
 12 41  1  0  0  0  0
 12 42  1  0  0  0  0
 13 43  1  0  0  0  0
 13 44  1  0  0  0  0
 14 45  1  0  0  0  0
 14 46  1  0  0  0  0
 15 47  1  0  0  0  0
 15 48  1  0  0  0  0
 16 49  1  0  0  0  0
 17 50  1  0  0  0  0
 18 51  1  0  0  0  0
 20 52  1  0  0  0  0
 20 53  1  0  0  0  0
 20 54  1  0  0  0  0
 21 55  1  0  0  0  0
 21 56  1  0  0  0  0
 22 57  1  0  0  0  0
 22 58  1  0  0  0  0
 23 59  1  0  0  0  0
 23 60  1  0  0  0  0
 24 61  1  0  0  0  0
 24 62  1  0  0  0  0
 25 63  1  0  0  0  0
 25 64  1  0  0  0  0
 26 65  1  0  0  0  0
 27 66  1  0  0  0  0
M  END
> <Name>
A_51

> <SourceTag>
A_51

> <Gold.Version>
5.2

> <Gold.Id.Protein>
6HGV|6HGV_protein|mol2

> <Gold.Goldscore.Fitness>
83.9244

> <Gold.Goldscore.Internal.Vdw>
-5.0840

> <Gold.Goldscore.Internal.Torsion>
-3.7227

> <Gold.Goldscore.External.Vdw>
62.5831

> <Gold.Goldscore.Internal.HBond>
0.0000

> <Gold.Goldscore.External.HBond>
0.0000

> <Gold.Goldscore.Internal.Correction>
-6.6794

> <Gold.Goldscore.Internal.Vdw.Weighted>
-5.0840

> <Gold.Goldscore.Internal.Torsion.Weighted>
-3.7227

> <Gold.Goldscore.External.Vdw.Weighted>
86.0518

> <Gold.Goldscore.Internal.HBond.Weighted>
0.0000

> <Gold.Goldscore.External.HBond.Weighted>
0.0000

> <Gold.Goldscore.Internal.Correction.Weighted>
-6.6794

> <Gold.Protein.RotatedTorsions>
[ 3781 1176 1175 1172 ] final -103.96 input   60.00 | X-H torsion
[ 3847 1247 1246 1244 ] final  -61.90 input   60.00 | X-H torsion
[ 4507 1931 1930 1928 ] final -125.28 input   60.00 | X-H torsion
[ 3677 1070 1069 1066 ] final -100.89 input   60.00 | X-H torsion
[ 3525  925  924  922 ] final  -30.34 input   59.99 | X-H torsion
[ 4531 1957 1955 1953 ] final  100.53 input   60.00 | X-H torsion

> <Gold.Protein.ActiveResidues>
 PHE267  PRO268  MET310  ASP335  TRP336  MET339  TYR343  THR360  PRO361  ILE363 
 PRO371  SER374  ILE375  ASN378  PHE381  TYR383  GLN384  PHE387  LEU408  LEU417 
 MET419  LEU428  TYR466  MET469  ASN472  ASP496  VAL498  LEU499  MET503  HIS524 
 TRP525 

> <Gold.Protein.RotatedAtoms>
   -3.7662  -29.5141  -30.0169 H   0  0  0  0  0  0  0  0  0  0  0  0  # atno 3525 bound_to 925 
  -11.7220  -23.7479  -31.4197 H   0  0  0  0  0  0  0  0  0  0  0  0  # atno 3677 bound_to 1070
   -9.6430  -36.3637  -33.9409 H   0  0  0  0  0  0  0  0  0  0  0  0  # atno 3781 bound_to 1176
  -16.0588  -27.8416  -37.2532 H   0  0  0  0  0  0  0  0  0  0  0  0  # atno 3847 bound_to 1247
  -13.4437  -24.4179  -40.4771 H   0  0  0  0  0  0  0  0  0  0  0  0  # atno 4507 bound_to 1931
   -2.6666  -33.9268  -36.7499 H   0  0  0  0  0  0  0  0  0  0  0  0  # atno 4531 bound_to 1957
   -9.6336  -36.9263  -32.4140 LP  0  0  0  0  0  0  0  0  0  0  0  0  # atno 5205 bound_to 1176
  -10.8369  -37.3468  -33.4347 LP  0  0  0  0  0  0  0  0  0  0  0  0  # atno 5206 bound_to 1176
  -14.6410  -27.4580  -37.9537 LP  0  0  0  0  0  0  0  0  0  0  0  0  # atno 5215 bound_to 1247
  -14.8585  -28.9393  -37.3017 LP  0  0  0  0  0  0  0  0  0  0  0  0  # atno 5216 bound_to 1247
  -12.4334  -23.9748  -39.2809 LP  0  0  0  0  0  0  0  0  0  0  0  0  # atno 5217 bound_to 1931
  -13.3150  -25.3425  -39.1443 LP  0  0  0  0  0  0  0  0  0  0  0  0  # atno 5218 bound_to 1931
  -11.3429  -22.2987  -30.7837 LP  0  0  0  0  0  0  0  0  0  0  0  0  # atno 5224 bound_to 1070
  -12.7907  -22.9817  -30.4609 LP  0  0  0  0  0  0  0  0  0  0  0  0  # atno 5225 bound_to 1070

$$$$
A_101|SEH_inhibs_minimized|sdf|3|dock4
  -GOLD-   41821 8583D 1   1.00000     0.00000

 48 51  0  0  0  0  0  0  0  0  1 V2000
   -8.8218  -29.5293  -34.3807 C   0  0  0  0  0  0  0  0  0  0  0  0
  -10.9938  -25.0210  -34.7940 C   0  0  0  0  0  0  0  0  0  0  0  0
  -10.2545  -25.5908  -33.5862 C   0  0  0  0  0  0  0  0  0  0  0  0
  -10.9804  -25.9853  -35.9771 C   0  0  0  0  0  0  0  0  0  0  0  0
  -10.7879  -26.9709  -33.1997 C   0  0  0  0  0  0  0  0  0  0  0  0
  -11.5124  -27.3644  -35.5849 C   0  0  0  0  0  0  0  0  0  0  0  0
   -3.5422  -30.9472  -32.9304 C   0  0  0  0  0  0  0  0  0  0  0  0
   -5.7571  -29.8669  -32.4683 C   0  0  0  0  0  0  0  0  0  0  0  0
   -4.5592  -29.4104  -34.6303 C   0  0  0  0  0  0  0  0  0  0  0  0
   -5.6349  -32.3275  -32.9233 C   0  0  0  0  0  0  0  0  0  0  0  0
   -4.4394  -31.8717  -35.0809 C   0  0  0  0  0  0  0  0  0  0  0  0
   -4.3776  -29.6700  -33.1235 C   0  0  0  0  0  0  0  0  0  0  0  0
   -4.2556  -32.1460  -33.5788 C   0  0  0  0  0  0  0  0  0  0  0  0
   -6.4878  -31.0581  -33.1184 C   0  0  0  0  0  0  0  0  0  0  0  0
   -5.2847  -30.5995  -35.2898 C   0  0  0  0  0  0  0  0  0  0  0  0
  -10.7849  -27.9605  -34.3725 C   0  0  0  0  0  0  0  0  0  0  0  0
   -6.6693  -30.7588  -34.6232 C   0  0  0  0  0  0  0  0  0  0  0  0
   -9.4104  -28.3172  -34.7311 N   0  0  0  0  0  0  0  0  0  0  0  0
   -7.5119  -29.6078  -34.8469 N   0  0  0  0  0  0  0  0  0  0  0  0
   -9.3847  -30.4178  -33.7424 O   0  0  0  0  0  0  0  0  0  0  0  0
  -12.0301  -24.7915  -34.5173 H   0  0  0  0  0  0  0  0  0  0  0  0
  -10.5275  -24.0726  -35.0921 H   0  0  0  0  0  0  0  0  0  0  0  0
   -9.1840  -25.6593  -33.8076 H   0  0  0  0  0  0  0  0  0  0  0  0
  -10.3632  -24.9075  -32.7355 H   0  0  0  0  0  0  0  0  0  0  0  0
  -11.5932  -25.5763  -36.7892 H   0  0  0  0  0  0  0  0  0  0  0  0
   -9.9597  -26.0812  -36.3630 H   0  0  0  0  0  0  0  0  0  0  0  0
  -10.1840  -27.3754  -32.3688 H   0  0  0  0  0  0  0  0  0  0  0  0
  -11.8106  -26.8670  -32.7995 H   0  0  0  0  0  0  0  0  0  0  0  0
  -12.5929  -27.2917  -35.3751 H   0  0  0  0  0  0  0  0  0  0  0  0
  -11.4230  -28.0484  -36.4469 H   0  0  0  0  0  0  0  0  0  0  0  0
   -2.5487  -30.8163  -33.3766 H   0  0  0  0  0  0  0  0  0  0  0  0
   -3.3885  -31.1361  -31.8608 H   0  0  0  0  0  0  0  0  0  0  0  0
   -5.6382  -30.0428  -31.3919 H   0  0  0  0  0  0  0  0  0  0  0  0
   -6.3566  -28.9548  -32.5769 H   0  0  0  0  0  0  0  0  0  0  0  0
   -5.1335  -28.4885  -34.7843 H   0  0  0  0  0  0  0  0  0  0  0  0
   -3.5816  -29.2585  -35.1042 H   0  0  0  0  0  0  0  0  0  0  0  0
   -6.1432  -33.1987  -33.3536 H   0  0  0  0  0  0  0  0  0  0  0  0
   -5.5144  -32.5323  -31.8522 H   0  0  0  0  0  0  0  0  0  0  0  0
   -3.4598  -31.7494  -35.5600 H   0  0  0  0  0  0  0  0  0  0  0  0
   -4.9184  -32.7322  -35.5633 H   0  0  0  0  0  0  0  0  0  0  0  0
   -3.8656  -28.8198  -32.6595 H   0  0  0  0  0  0  0  0  0  0  0  0
   -3.6563  -33.0525  -33.4381 H   0  0  0  0  0  0  0  0  0  0  0  0
   -7.4636  -31.1972  -32.6382 H   0  0  0  0  0  0  0  0  0  0  0  0
   -5.3995  -30.4107  -36.3639 H   0  0  0  0  0  0  0  0  0  0  0  0
  -11.2682  -28.8869  -34.0728 H   0  0  0  0  0  0  0  0  0  0  0  0
   -7.2014  -31.5946  -35.0948 H   0  0  0  0  0  0  0  0  0  0  0  0
   -8.8602  -27.6483  -35.2609 H   0  0  0  0  0  0  0  0  0  0  0  0
   -7.1453  -28.8436  -35.4059 H   0  0  0  0  0  0  0  0  0  0  0  0
  1 18  1  0  0  0  0
  1 19  1  0  0  0  0
  1 20  2  0  0  0  0
  2  3  1  0  0  0  0
  2  4  1  0  0  0  0
  3  5  1  0  0  0  0
  4  6  1  0  0  0  0
  5 16  1  0  0  0  0
  6 16  1  0  0  0  0
  7 12  1  0  0  0  0
  7 13  1  0  0  0  0
  8 12  1  0  0  0  0
  8 14  1  0  0  0  0
  9 12  1  0  0  0  0
  9 15  1  0  0  0  0
 10 13  1  0  0  0  0
 10 14  1  0  0  0  0
 11 13  1  0  0  0  0
 11 15  1  0  0  0  0
 14 17  1  0  0  0  0
 15 17  1  0  0  0  0
 16 18  1  0  0  0  0
 17 19  1  0  0  0  0
  2 21  1  0  0  0  0
  2 22  1  0  0  0  0
  3 23  1  0  0  0  0
  3 24  1  0  0  0  0
  4 25  1  0  0  0  0
  4 26  1  0  0  0  0
  5 27  1  0  0  0  0
  5 28  1  0  0  0  0
  6 29  1  0  0  0  0
  6 30  1  0  0  0  0
  7 31  1  0  0  0  0
  7 32  1  0  0  0  0
  8 33  1  0  0  0  0
  8 34  1  0  0  0  0
  9 35  1  0  0  0  0
  9 36  1  0  0  0  0
 10 37  1  0  0  0  0
 10 38  1  0  0  0  0
 11 39  1  0  0  0  0
 11 40  1  0  0  0  0
 12 41  1  0  0  0  0
 13 42  1  0  0  0  0
 14 43  1  0  0  0  0
 15 44  1  0  0  0  0
 16 45  1  0  0  0  0
 17 46  1  0  0  0  0
 18 47  1  0  0  0  0
 19 48  1  0  0  0  0
M  END
> <Name>
A_101

> <SourceTag>
A_101

> <Gold.Version>
5.2

> <Gold.Id.Protein>
6HGV|6HGV_protein|mol2

> <Gold.Goldscore.Fitness>
52.1226

> <Gold.Goldscore.Internal.Vdw>
-3.0451

> <Gold.Goldscore.Internal.Torsion>
-1.1970

> <Gold.Goldscore.External.Vdw>
38.3698

> <Gold.Goldscore.Internal.HBond>
0.0000

> <Gold.Goldscore.External.HBond>
0.0000

> <Gold.Goldscore.Internal.Correction>
-3.6062

> <Gold.Goldscore.Internal.Vdw.Weighted>
-3.0451

> <Gold.Goldscore.Internal.Torsion.Weighted>
-1.1970

> <Gold.Goldscore.External.Vdw.Weighted>
52.7585

> <Gold.Goldscore.Internal.HBond.Weighted>
0.0000

> <Gold.Goldscore.External.HBond.Weighted>
0.0000

> <Gold.Goldscore.Internal.Correction.Weighted>
-3.6062

> <Gold.Protein.RotatedTorsions>
[ 3781 1176 1175 1172 ] final  -85.55 input   60.00 | X-H torsion
[ 3847 1247 1246 1244 ] final  153.50 input   60.00 | X-H torsion
[ 4507 1931 1930 1928 ] final   84.66 input   60.00 | X-H torsion
[ 3677 1070 1069 1066 ] final  -64.98 input   60.00 | X-H torsion
[ 3525  925  924  922 ] final  -45.73 input   59.99 | X-H torsion
[ 4531 1957 1955 1953 ] final  101.20 input   60.00 | X-H torsion

> <Gold.Protein.ActiveResidues>
 PHE267  PRO268  MET310  ASP335  TRP336  MET339  TYR343  THR360  PRO361  ILE363 
 PRO371  SER374  ILE375  ASN378  PHE381  TYR383  GLN384  PHE387  LEU408  LEU417 
 MET419  LEU428  TYR466  MET469  ASN472  ASP496  VAL498  LEU499  MET503  HIS524 
 TRP525 

> <Gold.Protein.RotatedAtoms>
   -3.7632  -29.5383  -29.7674 H   0  0  0  0  0  0  0  0  0  0  0  0  # atno 3525 bound_to 925 
  -12.2524  -23.8376  -31.2101 H   0  0  0  0  0  0  0  0  0  0  0  0  # atno 3677 bound_to 1070
   -9.8810  -36.4662  -34.0911 H   0  0  0  0  0  0  0  0  0  0  0  0  # atno 3781 bound_to 1176
  -14.4072  -27.7816  -37.9244 H   0  0  0  0  0  0  0  0  0  0  0  0  # atno 3847 bound_to 1247
  -12.4822  -24.3270  -38.9477 H   0  0  0  0  0  0  0  0  0  0  0  0  # atno 4507 bound_to 1931
   -2.6574  -33.9325  -36.7517 H   0  0  0  0  0  0  0  0  0  0  0  0  # atno 4531 bound_to 1957
   -9.4363  -36.7435  -32.5506 LP  0  0  0  0  0  0  0  0  0  0  0  0  # atno 5205 bound_to 1176
  -10.7945  -37.4263  -33.1468 LP  0  0  0  0  0  0  0  0  0  0  0  0  # atno 5206 bound_to 1176
  -15.2304  -28.9528  -37.1505 LP  0  0  0  0  0  0  0  0  0  0  0  0  # atno 5215 bound_to 1247
  -15.9323  -27.5048  -37.4289 LP  0  0  0  0  0  0  0  0  0  0  0  0  # atno 5216 bound_to 1247
  -13.5749  -25.3671  -39.5577 LP  0  0  0  0  0  0  0  0  0  0  0  0  # atno 5217 bound_to 1931
  -13.1417  -24.0418  -40.4077 LP  0  0  0  0  0  0  0  0  0  0  0  0  # atno 5218 bound_to 1931
  -11.0965  -22.6949  -31.1305 LP  0  0  0  0  0  0  0  0  0  0  0  0  # atno 5224 bound_to 1070
  -12.5030  -22.4951  -30.3252 LP  0  0  0  0  0  0  0  0  0  0  0  0  # atno 5225 bound_to 1070

$$$$
A_22|SEH_inhibs_minimized|sdf|21|dock5
  -GOLD-   41821 9353D 1   1.00000     0.00000

 61 66  0  0  0  0  0  0  0  0  1 V2000
  -21.3798  -24.2514  -39.1900 C   0  0  0  0  0  0  0  0  0  0  0  0
  -20.8973  -24.7918  -37.9980 C   0  0  0  0  0  0  0  0  0  0  0  0
  -20.4909  -23.8917  -40.2030 C   0  0  0  0  0  0  0  0  0  0  0  0
   -9.0418  -30.6295  -34.7653 C   0  0  0  0  0  0  0  0  0  0  0  0
  -19.5257  -24.9724  -37.8191 C   0  0  0  0  0  0  0  0  0  0  0  0
  -19.1194  -24.0724  -40.0240 C   0  0  0  0  0  0  0  0  0  0  0  0
  -10.1944  -29.8519  -34.6514 C   0  0  0  0  0  0  0  0  0  0  0  0
   -6.5219  -32.0753  -34.2166 C   0  0  0  0  0  0  0  0  0  0  0  0
   -5.5104  -30.3785  -35.5887 C   0  0  0  0  0  0  0  0  0  0  0  0
   -7.6756  -28.6458  -34.5589 C   0  0  0  0  0  0  0  0  0  0  0  0
   -5.3575  -32.8118  -34.3631 C   0  0  0  0  0  0  0  0  0  0  0  0
   -4.3911  -31.1909  -35.6739 C   0  0  0  0  0  0  0  0  0  0  0  0
   -7.7849  -30.0267  -34.7237 C   0  0  0  0  0  0  0  0  0  0  0  0
   -6.5918  -30.8365  -34.8442 C   0  0  0  0  0  0  0  0  0  0  0  0
   -8.8327  -27.8709  -34.4419 C   0  0  0  0  0  0  0  0  0  0  0  0
  -18.6368  -24.6129  -38.8322 C   0  0  0  0  0  0  0  0  0  0  0  0
  -10.0925  -28.4673  -34.5030 C   0  0  0  0  0  0  0  0  0  0  0  0
   -8.7388  -26.4176  -34.2173 C   0  0  0  0  0  0  0  0  0  0  0  0
  -14.5202  -25.5680  -37.3097 C   0  0  0  0  0  0  0  0  0  0  0  0
  -10.0389  -25.7082  -33.9478 C   0  0  0  0  0  0  0  0  0  0  0  0
  -11.1102  -26.1343  -36.2320 C   0  0  0  0  0  0  0  0  0  0  0  0
  -12.5254  -25.7563  -34.2060 C   0  0  0  0  0  0  0  0  0  0  0  0
  -16.2353  -23.6690  -38.9550 C   0  0  0  0  0  0  0  0  0  0  0  0
  -12.3374  -26.6771  -36.9625 C   0  0  0  0  0  0  0  0  0  0  0  0
  -13.7455  -26.2802  -34.9705 C   0  0  0  0  0  0  0  0  0  0  0  0
  -17.1789  -24.8049  -38.6417 C   0  0  1  0  0  0  0  0  0  0  0  0
  -16.4728  -24.0602  -37.5264 C   0  0  1  0  0  0  0  0  0  0  0  0
  -11.1981  -26.3698  -34.7053 C   0  0  0  0  0  0  0  0  0  0  0  0
   -4.2864  -32.3999  -35.0782 N   0  0  0  0  0  0  0  0  0  0  0  0
  -13.5791  -26.1191  -36.4219 N   0  0  0  0  0  0  0  0  0  0  0  0
  -15.4452  -24.6962  -36.7462 N   0  0  0  0  0  0  0  0  0  0  0  0
   -7.6571  -25.8428  -34.1912 O   0  0  0  0  0  0  0  0  0  0  0  0
  -14.5408  -25.8369  -38.5158 O   0  0  0  0  0  0  0  0  0  0  0  0
  -11.2700  -27.7777  -34.4116 O   0  0  0  0  0  0  0  0  0  0  0  0
  -22.4475  -24.1110  -39.3294 H   0  0  0  0  0  0  0  0  0  0  0  0
  -21.5893  -25.0713  -37.2090 H   0  0  0  0  0  0  0  0  0  0  0  0
  -20.8665  -23.4718  -41.1313 H   0  0  0  0  0  0  0  0  0  0  0  0
   -9.1402  -31.7056  -34.8877 H   0  0  0  0  0  0  0  0  0  0  0  0
  -19.1598  -25.3940  -36.8867 H   0  0  0  0  0  0  0  0  0  0  0  0
  -18.4351  -23.7891  -40.8195 H   0  0  0  0  0  0  0  0  0  0  0  0
  -11.1695  -30.3307  -34.6901 H   0  0  0  0  0  0  0  0  0  0  0  0
   -7.3460  -32.4666  -33.6286 H   0  0  0  0  0  0  0  0  0  0  0  0
   -5.5278  -29.4178  -36.0930 H   0  0  0  0  0  0  0  0  0  0  0  0
   -6.6933  -28.1813  -34.5136 H   0  0  0  0  0  0  0  0  0  0  0  0
   -5.2536  -33.7850  -33.8945 H   0  0  0  0  0  0  0  0  0  0  0  0
   -3.5211  -30.8794  -36.2425 H   0  0  0  0  0  0  0  0  0  0  0  0
  -10.2013  -25.7535  -32.8637 H   0  0  0  0  0  0  0  0  0  0  0  0
   -9.9370  -24.6569  -34.2400 H   0  0  0  0  0  0  0  0  0  0  0  0
  -10.2228  -26.6154  -36.6581 H   0  0  0  0  0  0  0  0  0  0  0  0
  -11.0212  -25.0589  -36.4327 H   0  0  0  0  0  0  0  0  0  0  0  0
  -12.4872  -24.6635  -34.3078 H   0  0  0  0  0  0  0  0  0  0  0  0
  -12.6673  -25.9830  -33.1417 H   0  0  0  0  0  0  0  0  0  0  0  0
  -15.2831  -23.9203  -39.4082 H   0  0  0  0  0  0  0  0  0  0  0  0
  -16.6469  -22.7251  -39.2931 H   0  0  0  0  0  0  0  0  0  0  0  0
  -12.2462  -26.4631  -38.0320 H   0  0  0  0  0  0  0  0  0  0  0  0
  -12.4002  -27.7671  -36.8603 H   0  0  0  0  0  0  0  0  0  0  0  0
  -13.8984  -27.3482  -34.7780 H   0  0  0  0  0  0  0  0  0  0  0  0
  -14.6223  -25.7519  -34.5954 H   0  0  0  0  0  0  0  0  0  0  0  0
  -16.8069  -25.8002  -38.8701 H   0  0  0  0  0  0  0  0  0  0  0  0
  -17.0626  -23.3714  -36.9303 H   0  0  0  0  0  0  0  0  0  0  0  0
  -15.3937  -24.5025  -35.7538 H   0  0  0  0  0  0  0  0  0  0  0  0
  1  2  2  0  0  0  0
  1  3  1  0  0  0  0
  2  5  1  0  0  0  0
  3  6  2  0  0  0  0
  4  7  2  0  0  0  0
  4 13  1  0  0  0  0
  5 16  2  0  0  0  0
  6 16  1  0  0  0  0
  7 17  1  0  0  0  0
  8 11  1  0  0  0  0
  8 14  2  0  0  0  0
  9 12  2  0  0  0  0
  9 14  1  0  0  0  0
 10 13  2  0  0  0  0
 10 15  1  0  0  0  0
 11 29  2  0  0  0  0
 12 29  1  0  0  0  0
 13 14  1  0  0  0  0
 15 17  2  0  0  0  0
 15 18  1  0  0  0  0
 16 26  1  0  0  0  0
 17 34  1  0  0  0  0
 18 20  1  0  0  0  0
 18 32  2  0  0  0  0
 19 30  1  0  0  0  0
 19 31  1  0  0  0  0
 19 33  2  0  0  0  0
 20 28  1  0  0  0  0
 21 24  1  0  0  0  0
 21 28  1  0  0  0  0
 22 25  1  0  0  0  0
 22 28  1  0  0  0  0
 23 26  1  0  0  0  0
 23 27  1  0  0  0  0
 24 30  1  0  0  0  0
 25 30  1  0  0  0  0
 26 27  1  0  0  0  0
 27 31  1  0  0  0  0
 28 34  1  0  0  0  0
  1 35  1  0  0  0  0
  2 36  1  0  0  0  0
  3 37  1  0  0  0  0
  4 38  1  0  0  0  0
  5 39  1  0  0  0  0
  6 40  1  0  0  0  0
  7 41  1  0  0  0  0
  8 42  1  0  0  0  0
  9 43  1  0  0  0  0
 10 44  1  0  0  0  0
 11 45  1  0  0  0  0
 12 46  1  0  0  0  0
 20 47  1  0  0  0  0
 20 48  1  0  0  0  0
 21 49  1  0  0  0  0
 21 50  1  0  0  0  0
 22 51  1  0  0  0  0
 22 52  1  0  0  0  0
 23 53  1  0  0  0  0
 23 54  1  0  0  0  0
 24 55  1  0  0  0  0
 24 56  1  0  0  0  0
 25 57  1  0  0  0  0
 25 58  1  0  0  0  0
 26 59  1  0  0  0  0
 27 60  1  0  0  0  0
 31 61  1  0  0  0  0
M  END
> <Name>
A_22

> <SourceTag>
A_22

> <Gold.Version>
5.2

> <Gold.Id.Protein>
6HGV|6HGV_protein|mol2

> <Gold.Goldscore.Fitness>
60.8201

> <Gold.Goldscore.Internal.Vdw>
-13.5432

> <Gold.Goldscore.Internal.Torsion>
-5.6013

> <Gold.Goldscore.External.Vdw>
48.7637

> <Gold.Goldscore.Internal.HBond>
0.0000

> <Gold.Goldscore.External.HBond>
1.1985

> <Gold.Goldscore.Internal.Correction>
-11.7161

> <Gold.Goldscore.Hbonds>
donor molecule, donor type, donor heavy atom, donor atom, acceptor molecule, acceptor atom, score
      P1  H  1957  4531       L1    29  0.60

> <Gold.Goldscore.Internal.Vdw.Weighted>
-13.5432

> <Gold.Goldscore.Internal.Torsion.Weighted>
-5.6013

> <Gold.Goldscore.External.Vdw.Weighted>
67.0500

> <Gold.Goldscore.Internal.HBond.Weighted>
0.0000

> <Gold.Goldscore.External.HBond.Weighted>
1.1985

> <Gold.Goldscore.Internal.Correction.Weighted>
-11.7161

> <Gold.Protein.RotatedTorsions>
[ 3781 1176 1175 1172 ] final  -64.50 input   60.00 | X-H torsion
[ 3847 1247 1246 1244 ] final  -56.41 input   60.00 | X-H torsion
[ 4507 1931 1930 1928 ] final   92.30 input   60.00 | X-H torsion
[ 3677 1070 1069 1066 ] final  -98.20 input   60.00 | X-H torsion
[ 3525  925  924  922 ] final  177.91 input   59.99 | X-H torsion
[ 4531 1957 1955 1953 ] final   25.84 input   60.00 | X-H torsion

> <Gold.Protein.ActiveResidues>
 PHE267  PRO268  MET310  ASP335  TRP336  MET339  TYR343  THR360  PRO361  ILE363 
 PRO371  SER374  ILE375  ASN378  PHE381  TYR383  GLN384  PHE387  LEU408  LEU417 
 MET419  LEU428  TYR466  MET469  ASN472  ASP496  VAL498  LEU499  MET503  HIS524 
 TRP525 

> <Gold.Protein.RotatedAtoms>
   -2.2117  -30.2456  -29.4289 H   0  0  0  0  0  0  0  0  0  0  0  0  # atno 3525 bound_to 925 
  -11.7612  -23.7654  -31.4104 H   0  0  0  0  0  0  0  0  0  0  0  0  # atno 3677 bound_to 1070
  -10.1711  -36.6344  -34.1588 H   0  0  0  0  0  0  0  0  0  0  0  0  # atno 3781 bound_to 1176
  -16.0667  -27.9239  -37.2186 H   0  0  0  0  0  0  0  0  0  0  0  0  # atno 3847 bound_to 1247
  -12.4544  -24.2282  -39.0186 H   0  0  0  0  0  0  0  0  0  0  0  0  # atno 4507 bound_to 1931
   -3.0601  -32.8653  -36.6567 H   0  0  0  0  0  0  0  0  0  0  0  0  # atno 4531 bound_to 1957
   -9.2870  -36.5523  -32.7951 LP  0  0  0  0  0  0  0  0  0  0  0  0  # atno 5205 bound_to 1176
  -10.6517  -37.4482  -32.8341 LP  0  0  0  0  0  0  0  0  0  0  0  0  # atno 5206 bound_to 1176
  -14.7101  -27.4001  -37.9487 LP  0  0  0  0  0  0  0  0  0  0  0  0  # atno 5215 bound_to 1247
  -14.7814  -28.9143  -37.3415 LP  0  0  0  0  0  0  0  0  0  0  0  0  # atno 5216 bound_to 1247
  -13.5196  -25.3818  -39.4459 LP  0  0  0  0  0  0  0  0  0  0  0  0  # atno 5217 bound_to 1931
  -13.2251  -24.1266  -40.4481 LP  0  0  0  0  0  0  0  0  0  0  0  0  # atno 5218 bound_to 1931
  -11.3146  -22.3204  -30.8100 LP  0  0  0  0  0  0  0  0  0  0  0  0  # atno 5224 bound_to 1070
  -12.7795  -22.9424  -30.4440 LP  0  0  0  0  0  0  0  0  0  0  0  0  # atno 5225 bound_to 1070

$$$$
A_118|SEH_inhibs_minimized|sdf|11|dock7
  -GOLD-   41821 9133D 1   1.00000     0.00000

 71 75  0  0  0  0  0  0  0  0  1 V2000
   -8.6622  -29.0690  -34.0051 C   0  0  0  0  0  0  0  0  0  0  0  0
  -11.4838  -28.0613  -35.0415 C   0  0  0  0  0  0  0  0  0  0  0  0
  -10.7234  -25.9171  -33.9353 C   0  0  0  0  0  0  0  0  0  0  0  0
  -11.3465  -27.4004  -36.4162 C   0  0  0  0  0  0  0  0  0  0  0  0
  -10.5839  -25.2572  -35.3100 C   0  0  0  0  0  0  0  0  0  0  0  0
   -4.2218  -31.7907  -33.0267 C   0  0  0  0  0  0  0  0  0  0  0  0
   -4.8946  -32.5258  -35.3280 C   0  0  0  0  0  0  0  0  0  0  0  0
   -6.2904  -33.1719  -33.3472 C   0  0  0  0  0  0  0  0  0  0  0  0
   -5.0857  -30.1119  -34.6768 C   0  0  0  0  0  0  0  0  0  0  0  0
   -6.4827  -30.7588  -32.6939 C   0  0  0  0  0  0  0  0  0  0  0  0
   -7.1572  -31.4954  -34.9986 C   0  0  0  0  0  0  0  0  0  0  0  0
  -18.1314  -25.5174  -37.0080 C   0  0  0  0  0  0  0  0  0  0  0  0
  -18.0447  -23.6756  -38.5569 C   0  0  0  0  0  0  0  0  0  0  0  0
  -19.5072  -25.0358  -36.5564 C   0  0  0  0  0  0  0  0  0  0  0  0
  -19.4221  -23.2369  -38.0679 C   0  0  0  0  0  0  0  0  0  0  0  0
   -4.2495  -31.3927  -34.5120 C   0  0  0  0  0  0  0  0  0  0  0  0
   -5.6523  -32.0423  -32.5211 C   0  0  0  0  0  0  0  0  0  0  0  0
   -6.3289  -32.7815  -34.8345 C   0  0  0  0  0  0  0  0  0  0  0  0
  -10.5528  -27.4385  -33.9961 C   0  0  2  0  0  0  0  0  0  0  0  0
  -11.5163  -25.8834  -36.3472 C   0  0  2  0  0  0  0  0  0  0  0  0
   -6.5304  -30.3450  -34.1816 C   0  0  0  0  0  0  0  0  0  0  0  0
  -15.1155  -25.2395  -36.7739 C   0  0  0  0  0  0  0  0  0  0  0  0
  -16.0143  -24.8169  -37.9285 C   0  0  0  0  0  0  0  0  0  0  0  0
  -13.6531  -25.3713  -37.1812 C   0  0  0  0  0  0  0  0  0  0  0  0
  -17.3334  -24.3769  -37.4790 N   0  0  0  0  0  0  0  0  0  0  0  0
   -9.1748  -27.7976  -34.2481 N   0  0  0  0  0  0  0  0  0  0  0  0
   -7.3126  -29.1380  -34.3355 N   0  0  0  0  0  0  0  0  0  0  0  0
   -9.3167  -30.0096  -33.5571 O   0  0  0  0  0  0  0  0  0  0  0  0
  -20.1759  -24.3664  -37.6261 O   0  0  0  0  0  0  0  0  0  0  0  0
  -12.8725  -25.5901  -36.0162 O   0  0  0  0  0  0  0  0  0  0  0  0
  -12.5216  -27.9623  -34.6989 H   0  0  0  0  0  0  0  0  0  0  0  0
  -11.2859  -29.1358  -35.1369 H   0  0  0  0  0  0  0  0  0  0  0  0
   -9.9894  -25.4781  -33.2486 H   0  0  0  0  0  0  0  0  0  0  0  0
  -11.7147  -25.6851  -33.5260 H   0  0  0  0  0  0  0  0  0  0  0  0
  -10.3634  -27.6389  -36.8394 H   0  0  0  0  0  0  0  0  0  0  0  0
  -12.1024  -27.8294  -37.0849 H   0  0  0  0  0  0  0  0  0  0  0  0
  -10.8035  -24.1881  -35.2065 H   0  0  0  0  0  0  0  0  0  0  0  0
   -9.5460  -25.3442  -35.6534 H   0  0  0  0  0  0  0  0  0  0  0  0
   -3.6132  -32.6933  -32.8924 H   0  0  0  0  0  0  0  0  0  0  0  0
   -3.7492  -30.9971  -32.4347 H   0  0  0  0  0  0  0  0  0  0  0  0
   -4.9062  -32.2613  -36.3924 H   0  0  0  0  0  0  0  0  0  0  0  0
   -4.2979  -33.4412  -35.2338 H   0  0  0  0  0  0  0  0  0  0  0  0
   -5.7180  -34.0988  -33.2183 H   0  0  0  0  0  0  0  0  0  0  0  0
   -7.3065  -33.3724  -32.9859 H   0  0  0  0  0  0  0  0  0  0  0  0
   -4.6196  -29.2895  -34.1184 H   0  0  0  0  0  0  0  0  0  0  0  0
   -5.0911  -29.8032  -35.7306 H   0  0  0  0  0  0  0  0  0  0  0  0
   -7.4996  -30.9186  -32.3116 H   0  0  0  0  0  0  0  0  0  0  0  0
   -6.0507  -29.9509  -32.0885 H   0  0  0  0  0  0  0  0  0  0  0  0
   -7.2132  -31.2208  -36.0602 H   0  0  0  0  0  0  0  0  0  0  0  0
   -8.1902  -31.6750  -34.6727 H   0  0  0  0  0  0  0  0  0  0  0  0
  -17.6323  -26.0045  -36.1658 H   0  0  0  0  0  0  0  0  0  0  0  0
  -18.2502  -26.2515  -37.8120 H   0  0  0  0  0  0  0  0  0  0  0  0
  -18.1602  -24.3350  -39.4237 H   0  0  0  0  0  0  0  0  0  0  0  0
  -17.4818  -22.7912  -38.8672 H   0  0  0  0  0  0  0  0  0  0  0  0
  -20.1229  -25.8921  -36.2624 H   0  0  0  0  0  0  0  0  0  0  0  0
  -19.4367  -24.3650  -35.6917 H   0  0  0  0  0  0  0  0  0  0  0  0
  -19.3494  -22.5046  -37.2544 H   0  0  0  0  0  0  0  0  0  0  0  0
  -19.9763  -22.7672  -38.8867 H   0  0  0  0  0  0  0  0  0  0  0  0
   -3.2282  -31.2161  -34.8670 H   0  0  0  0  0  0  0  0  0  0  0  0
   -5.6263  -32.3265  -31.4632 H   0  0  0  0  0  0  0  0  0  0  0  0
   -6.7824  -33.5905  -35.4179 H   0  0  0  0  0  0  0  0  0  0  0  0
  -10.7881  -27.8622  -33.0132 H   0  0  0  0  0  0  0  0  0  0  0  0
  -11.3212  -25.4499  -37.3342 H   0  0  0  0  0  0  0  0  0  0  0  0
  -15.1941  -24.5023  -35.9651 H   0  0  0  0  0  0  0  0  0  0  0  0
  -15.4611  -26.1899  -36.3475 H   0  0  0  0  0  0  0  0  0  0  0  0
  -15.5644  -23.9773  -38.4674 H   0  0  0  0  0  0  0  0  0  0  0  0
  -16.1590  -25.6396  -38.6360 H   0  0  0  0  0  0  0  0  0  0  0  0
  -13.5045  -26.2175  -37.8592 H   0  0  0  0  0  0  0  0  0  0  0  0
  -13.3003  -24.4570  -37.6689 H   0  0  0  0  0  0  0  0  0  0  0  0
   -8.5511  -27.0882  -34.6203 H   0  0  0  0  0  0  0  0  0  0  0  0
   -6.8640  -28.3249  -34.7428 H   0  0  0  0  0  0  0  0  0  0  0  0
  1 26  1  0  0  0  0
  1 27  1  0  0  0  0
  1 28  2  0  0  0  0
  2  4  1  0  0  0  0
  2 19  1  0  0  0  0
  3  5  1  0  0  0  0
  3 19  1  0  0  0  0
  4 20  1  0  0  0  0
  5 20  1  0  0  0  0
  6 16  1  0  0  0  0
  6 17  1  0  0  0  0
  7 16  1  0  0  0  0
  7 18  1  0  0  0  0
  8 17  1  0  0  0  0
  8 18  1  0  0  0  0
  9 16  1  0  0  0  0
  9 21  1  0  0  0  0
 10 17  1  0  0  0  0
 10 21  1  0  0  0  0
 11 18  1  0  0  0  0
 11 21  1  0  0  0  0
 12 14  1  0  0  0  0
 12 25  1  0  0  0  0
 13 15  1  0  0  0  0
 13 25  1  0  0  0  0
 14 29  1  0  0  0  0
 15 29  1  0  0  0  0
 19 26  1  0  0  0  0
 20 30  1  0  0  0  0
 21 27  1  0  0  0  0
 22 23  1  0  0  0  0
 22 24  1  0  0  0  0
 23 25  1  0  0  0  0
 24 30  1  0  0  0  0
  2 31  1  0  0  0  0
  2 32  1  0  0  0  0
  3 33  1  0  0  0  0
  3 34  1  0  0  0  0
  4 35  1  0  0  0  0
  4 36  1  0  0  0  0
  5 37  1  0  0  0  0
  5 38  1  0  0  0  0
  6 39  1  0  0  0  0
  6 40  1  0  0  0  0
  7 41  1  0  0  0  0
  7 42  1  0  0  0  0
  8 43  1  0  0  0  0
  8 44  1  0  0  0  0
  9 45  1  0  0  0  0
  9 46  1  0  0  0  0
 10 47  1  0  0  0  0
 10 48  1  0  0  0  0
 11 49  1  0  0  0  0
 11 50  1  0  0  0  0
 12 51  1  0  0  0  0
 12 52  1  0  0  0  0
 13 53  1  0  0  0  0
 13 54  1  0  0  0  0
 14 55  1  0  0  0  0
 14 56  1  0  0  0  0
 15 57  1  0  0  0  0
 15 58  1  0  0  0  0
 16 59  1  0  0  0  0
 17 60  1  0  0  0  0
 18 61  1  0  0  0  0
 19 62  1  0  0  0  0
 20 63  1  0  0  0  0
 22 64  1  0  0  0  0
 22 65  1  0  0  0  0
 23 66  1  0  0  0  0
 23 67  1  0  0  0  0
 24 68  1  0  0  0  0
 24 69  1  0  0  0  0
 26 70  1  0  0  0  0
 27 71  1  0  0  0  0
M  END
> <SourceTag>
A_118

> <Gold.Version>
5.2

> <Gold.Id.Protein>
6HGV|6HGV_protein|mol2

> <Gold.Goldscore.Fitness>
75.5286

> <Gold.Goldscore.Internal.Vdw>
-8.7854

> <Gold.Goldscore.Internal.Torsion>
-4.1553

> <Gold.Goldscore.External.Vdw>
55.1637

> <Gold.Goldscore.Internal.HBond>
0.0000

> <Gold.Goldscore.External.HBond>
0.0000

> <Gold.Goldscore.Internal.Correction>
-12.6192

> <Gold.Goldscore.Internal.Vdw.Weighted>
-8.7854

> <Gold.Goldscore.Internal.Torsion.Weighted>
-4.1553

> <Gold.Goldscore.External.Vdw.Weighted>
75.8501

> <Gold.Goldscore.Internal.HBond.Weighted>
0.0000

> <Gold.Goldscore.External.HBond.Weighted>
0.0000

> <Gold.Goldscore.Internal.Correction.Weighted>
-12.6192

> <Gold.Protein.RotatedTorsions>
[ 3781 1176 1175 1172 ] final -168.33 input   60.00 | X-H torsion
[ 3847 1247 1246 1244 ] final   72.43 input   60.00 | X-H torsion
[ 4507 1931 1930 1928 ] final  145.60 input   60.00 | X-H torsion
[ 3677 1070 1069 1066 ] final -149.21 input   60.00 | X-H torsion
[ 3525  925  924  922 ] final  -62.25 input   59.99 | X-H torsion
[ 4531 1957 1955 1953 ] final  -91.40 input   60.00 | X-H torsion

> <Gold.Protein.ActiveResidues>
 PHE267  PRO268  MET310  ASP335  TRP336  MET339  TYR343  THR360  PRO361  ILE363 
 PRO371  SER374  ILE375  ASN378  PHE381  TYR383  GLN384  PHE387  LEU408  LEU417 
 MET419  LEU428  TYR466  MET469  ASN472  ASP496  VAL498  LEU499  MET503  HIS524 
 TRP525 

> <Gold.Protein.RotatedAtoms>
   -3.6921  -29.5925  -29.5135 H   0  0  0  0  0  0  0  0  0  0  0  0  # atno 3525 bound_to 925 
  -11.1787  -23.2089  -31.3798 H   0  0  0  0  0  0  0  0  0  0  0  0  # atno 3677 bound_to 1070
   -9.2440  -36.4387  -33.0300 H   0  0  0  0  0  0  0  0  0  0  0  0  # atno 3781 bound_to 1176
  -14.6698  -28.8533  -37.4113 H   0  0  0  0  0  0  0  0  0  0  0  0  # atno 3847 bound_to 1247
  -12.5642  -23.7924  -39.7280 H   0  0  0  0  0  0  0  0  0  0  0  0  # atno 4507 bound_to 1931
   -1.5410  -32.4550  -36.9384 H   0  0  0  0  0  0  0  0  0  0  0  0  # atno 4531 bound_to 1957
  -10.4849  -37.4129  -32.6310 LP  0  0  0  0  0  0  0  0  0  0  0  0  # atno 5205 bound_to 1176
  -10.3874  -36.7845  -34.1350 LP  0  0  0  0  0  0  0  0  0  0  0  0  # atno 5206 bound_to 1176
  -16.0679  -28.0582  -37.1640 LP  0  0  0  0  0  0  0  0  0  0  0  0  # atno 5215 bound_to 1247
  -14.8303  -27.3201  -37.9322 LP  0  0  0  0  0  0  0  0  0  0  0  0  # atno 5216 bound_to 1247
  -12.9789  -25.1035  -38.8580 LP  0  0  0  0  0  0  0  0  0  0  0  0  # atno 5217 bound_to 1931
  -13.6552  -24.8438  -40.3215 LP  0  0  0  0  0  0  0  0  0  0  0  0  # atno 5218 bound_to 1931
  -12.0079  -22.2052  -30.4035 LP  0  0  0  0  0  0  0  0  0  0  0  0  # atno 5224 bound_to 1070
  -12.6728  -23.6181  -30.8813 LP  0  0  0  0  0  0  0  0  0  0  0  0  # atno 5225 bound_to 1070

$$$$
A_98|SEH_inhibs_minimized|sdf|57|dock5
  -GOLD-   4182110463D 1   1.00000     0.00000

 39 39  0  0  0  0  0  0  0  0  1 V2000
  -10.4757  -25.4153  -34.6485 C   0  0  0  0  0  0  0  0  0  0  0  0
   -9.4930  -26.2018  -34.0474 C   0  0  0  0  0  0  0  0  0  0  0  0
  -10.9918  -25.7747  -35.8936 C   0  0  0  0  0  0  0  0  0  0  0  0
   -9.0264  -27.3478  -34.6914 C   0  0  0  0  0  0  0  0  0  0  0  0
  -10.5250  -26.9206  -36.5376 C   0  0  0  0  0  0  0  0  0  0  0  0
   -9.5424  -27.7072  -35.9365 C   0  0  0  0  0  0  0  0  0  0  0  0
  -13.0458  -25.3914  -37.3130 C   0  0  0  0  0  0  0  0  0  0  0  0
  -22.3569  -22.8055  -39.2164 C   0  0  0  0  0  0  0  0  0  0  0  0
  -21.1936  -22.9811  -38.2531 C   0  0  0  0  0  0  0  0  0  0  0  0
  -19.9545  -23.5263  -38.9646 C   0  0  0  0  0  0  0  0  0  0  0  0
  -18.7456  -23.5551  -38.0271 C   0  0  0  0  0  0  0  0  0  0  0  0
  -17.4739  -24.0935  -38.6891 C   0  0  0  0  0  0  0  0  0  0  0  0
  -16.2280  -23.9666  -37.8086 C   0  0  0  0  0  0  0  0  0  0  0  0
  -14.9744  -24.4085  -38.5635 C   0  0  0  0  0  0  0  0  0  0  0  0
  -11.9876  -24.9745  -36.5007 N   0  0  0  0  0  0  0  0  0  0  0  0
  -13.7998  -24.2905  -37.7073 N   0  0  0  0  0  0  0  0  0  0  0  0
  -13.3015  -26.5456  -37.6479 O   0  0  0  0  0  0  0  0  0  0  0  0
   -8.0812  -28.1021  -34.1151 F   0  0  0  0  0  0  0  0  0  0  0  0
  -11.0133  -27.2751  -37.7349 F   0  0  0  0  0  0  0  0  0  0  0  0
   -9.0937  -28.8069  -36.5555 F   0  0  0  0  0  0  0  0  0  0  0  0
  -10.8311  -24.5240  -34.1375 H   0  0  0  0  0  0  0  0  0  0  0  0
   -9.0899  -25.9219  -33.0786 H   0  0  0  0  0  0  0  0  0  0  0  0
  -22.1669  -21.9843  -39.9150 H   0  0  0  0  0  0  0  0  0  0  0  0
  -22.5274  -23.7181  -39.7965 H   0  0  0  0  0  0  0  0  0  0  0  0
  -23.2744  -22.5770  -38.6649 H   0  0  0  0  0  0  0  0  0  0  0  0
  -20.9627  -22.0150  -37.7895 H   0  0  0  0  0  0  0  0  0  0  0  0
  -21.4921  -23.6643  -37.4494 H   0  0  0  0  0  0  0  0  0  0  0  0
  -19.7284  -22.9023  -39.8377 H   0  0  0  0  0  0  0  0  0  0  0  0
  -20.1691  -24.5356  -39.3328 H   0  0  0  0  0  0  0  0  0  0  0  0
  -18.5414  -22.5361  -37.6754 H   0  0  0  0  0  0  0  0  0  0  0  0
  -18.9795  -24.1542  -37.1387 H   0  0  0  0  0  0  0  0  0  0  0  0
  -17.6225  -25.1427  -38.9718 H   0  0  0  0  0  0  0  0  0  0  0  0
  -17.3120  -23.5358  -39.6201 H   0  0  0  0  0  0  0  0  0  0  0  0
  -16.1170  -22.9255  -37.4805 H   0  0  0  0  0  0  0  0  0  0  0  0
  -16.3424  -24.5809  -36.9079 H   0  0  0  0  0  0  0  0  0  0  0  0
  -15.0771  -25.4498  -38.8869 H   0  0  0  0  0  0  0  0  0  0  0  0
  -14.8335  -23.7929  -39.4587 H   0  0  0  0  0  0  0  0  0  0  0  0
  -11.9218  -23.9758  -36.3208 H   0  0  0  0  0  0  0  0  0  0  0  0
  -13.5230  -23.3744  -37.3882 H   0  0  0  0  0  0  0  0  0  0  0  0
  1  2  1  0  0  0  0
  1  3  2  0  0  0  0
  2  4  2  0  0  0  0
  3  5  1  0  0  0  0
  3 15  1  0  0  0  0
  4  6  1  0  0  0  0
  4 18  1  0  0  0  0
  5  6  2  0  0  0  0
  5 19  1  0  0  0  0
  6 20  1  0  0  0  0
  7 15  1  0  0  0  0
  7 16  1  0  0  0  0
  7 17  2  0  0  0  0
  8  9  1  0  0  0  0
  9 10  1  0  0  0  0
 10 11  1  0  0  0  0
 11 12  1  0  0  0  0
 12 13  1  0  0  0  0
 13 14  1  0  0  0  0
 14 16  1  0  0  0  0
  1 21  1  0  0  0  0
  2 22  1  0  0  0  0
  8 23  1  0  0  0  0
  8 24  1  0  0  0  0
  8 25  1  0  0  0  0
  9 26  1  0  0  0  0
  9 27  1  0  0  0  0
 10 28  1  0  0  0  0
 10 29  1  0  0  0  0
 11 30  1  0  0  0  0
 11 31  1  0  0  0  0
 12 32  1  0  0  0  0
 12 33  1  0  0  0  0
 13 34  1  0  0  0  0
 13 35  1  0  0  0  0
 14 36  1  0  0  0  0
 14 37  1  0  0  0  0
 15 38  1  0  0  0  0
 16 39  1  0  0  0  0
M  END
> <Name>
A_98

> <SourceTag>
A_98

> <Gold.Version>
5.2

> <Gold.Id.Protein>
6HGV|6HGV_protein|mol2

> <Gold.Goldscore.Fitness>
59.7927

> <Gold.Goldscore.Internal.Vdw>
-2.9328

> <Gold.Goldscore.Internal.Torsion>
-2.9516

> <Gold.Goldscore.External.Vdw>
38.9533

> <Gold.Goldscore.Internal.HBond>
0.0000

> <Gold.Goldscore.External.HBond>
7.2262

> <Gold.Goldscore.Internal.Correction>
-4.8902

> <Gold.Goldscore.Hbonds>
donor molecule, donor type, donor heavy atom, donor atom, acceptor molecule, acceptor atom, score
      P1  H  1247  3847       L1    17  0.42
      L1  H    15    38       P1   854  0.29
      L1  H    16    39       P1   854  0.78

> <Gold.Goldscore.Internal.Vdw.Weighted>
-2.9328

> <Gold.Goldscore.Internal.Torsion.Weighted>
-2.9516

> <Gold.Goldscore.External.Vdw.Weighted>
53.5608

> <Gold.Goldscore.Internal.HBond.Weighted>
0.0000

> <Gold.Goldscore.External.HBond.Weighted>
7.2262

> <Gold.Goldscore.Internal.Correction.Weighted>
-4.8902

> <Gold.Protein.RotatedTorsions>
[ 3781 1176 1175 1172 ] final -172.03 input   60.00 | X-H torsion
[ 3847 1247 1246 1244 ] final  170.85 input   60.00 | X-H torsion
[ 4507 1931 1930 1928 ] final  153.81 input   60.00 | X-H torsion
[ 3677 1070 1069 1066 ] final -112.55 input   60.00 | X-H torsion
[ 3525  925  924  922 ] final   20.98 input   59.99 | X-H torsion
[ 4531 1957 1955 1953 ] final  -42.13 input   60.00 | X-H torsion

> <Gold.Protein.ActiveResidues>
 PHE267  PRO268  MET310  ASP335  TRP336  MET339  TYR343  THR360  PRO361  ILE363 
 PRO371  SER374  ILE375  ASN378  PHE381  TYR383  GLN384  PHE387  LEU408  LEU417 
 MET419  LEU428  TYR466  MET469  ASN472  ASP496  VAL498  LEU499  MET503  HIS524 
 TRP525 

> <Gold.Protein.RotatedAtoms>
   -3.3657  -29.6250  -30.7130 H   0  0  0  0  0  0  0  0  0  0  0  0  # atno 3525 bound_to 925 
  -11.5591  -23.6536  -31.4461 H   0  0  0  0  0  0  0  0  0  0  0  0  # atno 3677 bound_to 1070
   -9.2493  -36.4629  -32.9748 H   0  0  0  0  0  0  0  0  0  0  0  0  # atno 3781 bound_to 1176
  -14.5627  -27.5477  -37.9528 H   0  0  0  0  0  0  0  0  0  0  0  0  # atno 3847 bound_to 1247
  -12.6247  -23.7792  -39.8469 H   0  0  0  0  0  0  0  0  0  0  0  0  # atno 4507 bound_to 1931
   -2.2647  -32.1995  -36.7964 H   0  0  0  0  0  0  0  0  0  0  0  0  # atno 4531 bound_to 1957
  -10.5267  -37.4249  -32.6736 LP  0  0  0  0  0  0  0  0  0  0  0  0  # atno 5205 bound_to 1176
  -10.3403  -36.7483  -34.1480 LP  0  0  0  0  0  0  0  0  0  0  0  0  # atno 5206 bound_to 1176
  -14.9648  -28.9602  -37.2520 LP  0  0  0  0  0  0  0  0  0  0  0  0  # atno 5215 bound_to 1247
  -16.0413  -27.7331  -37.2989 LP  0  0  0  0  0  0  0  0  0  0  0  0  # atno 5216 bound_to 1247
  -12.8897  -25.0109  -38.8170 LP  0  0  0  0  0  0  0  0  0  0  0  0  # atno 5217 bound_to 1931
  -13.6835  -24.9497  -40.2428 LP  0  0  0  0  0  0  0  0  0  0  0  0  # atno 5218 bound_to 1931
  -11.4802  -22.2236  -30.6734 LP  0  0  0  0  0  0  0  0  0  0  0  0  # atno 5224 bound_to 1070
  -12.8175  -23.1518  -30.5446 LP  0  0  0  0  0  0  0  0  0  0  0  0  # atno 5225 bound_to 1070

$$$$
A_1|SEH_inhibs_minimized|sdf|1|dock3
  -GOLD-   41821 8533D 1   1.00000     0.00000

 80 82  0  0  0  0  0  0  0  0  1 V2000
  -22.6683  -23.9731  -37.1897 C   0  0  0  0  0  0  0  0  0  0  0  0
   -8.2220  -29.2026  -34.8930 C   0  0  0  0  0  0  0  0  0  0  0  0
   -4.9848  -32.9334  -35.4099 C   0  0  0  0  0  0  0  0  0  0  0  0
   -5.8206  -33.1469  -33.0551 C   0  0  0  0  0  0  0  0  0  0  0  0
   -3.6910  -31.9077  -33.5221 C   0  0  0  0  0  0  0  0  0  0  0  0
   -7.0335  -31.6806  -34.6879 C   0  0  0  0  0  0  0  0  0  0  0  0
   -4.9017  -30.4402  -35.1554 C   0  0  0  0  0  0  0  0  0  0  0  0
   -5.7381  -30.6538  -32.7968 C   0  0  0  0  0  0  0  0  0  0  0  0
   -6.2422  -32.9900  -34.5259 C   0  0  0  0  0  0  0  0  0  0  0  0
   -4.1016  -31.7444  -34.9954 C   0  0  0  0  0  0  0  0  0  0  0  0
   -4.9415  -31.9591  -32.6279 C   0  0  0  0  0  0  0  0  0  0  0  0
   -6.1665  -30.4725  -34.2691 C   0  0  0  0  0  0  0  0  0  0  0  0
  -24.5864  -21.6258  -38.8148 C   0  0  0  0  0  0  0  0  0  0  0  0
  -24.2551  -22.8264  -35.1396 C   0  0  0  0  0  0  0  0  0  0  0  0
  -21.3642  -24.3500  -37.8577 C   0  0  0  0  0  0  0  0  0  0  0  0
  -24.9773  -22.2576  -37.4852 C   0  0  0  0  0  0  0  0  0  0  0  0
  -20.2699  -24.7460  -36.8653 C   0  0  0  0  0  0  0  0  0  0  0  0
  -18.8798  -24.7718  -37.5105 C   0  0  0  0  0  0  0  0  0  0  0  0
  -17.7790  -25.2515  -36.5581 C   0  0  0  0  0  0  0  0  0  0  0  0
  -16.3770  -25.1821  -37.1690 C   0  0  0  0  0  0  0  0  0  0  0  0
  -15.2788  -25.6725  -36.2199 C   0  0  0  0  0  0  0  0  0  0  0  0
  -13.8646  -25.3695  -36.7201 C   0  0  0  0  0  0  0  0  0  0  0  0
  -12.8076  -25.8796  -35.7365 C   0  0  0  0  0  0  0  0  0  0  0  0
  -11.3936  -25.5766  -36.2369 C   0  0  0  0  0  0  0  0  0  0  0  0
  -10.2966  -26.0665  -35.2887 C   0  0  0  0  0  0  0  0  0  0  0  0
  -10.0296  -27.5639  -35.3938 C   0  0  0  0  0  0  0  0  0  0  0  0
  -23.8874  -22.0952  -36.4236 C   0  0  2  0  0  0  0  0  0  0  0  0
   -6.9115  -29.2447  -34.4246 N   0  0  0  0  0  0  0  0  0  0  0  0
   -8.7033  -27.8936  -34.9461 N   0  0  0  0  0  0  0  0  0  0  0  0
  -23.5871  -24.7445  -36.9503 O   0  0  0  0  0  0  0  0  0  0  0  0
   -8.8766  -30.1918  -35.2196 O   0  0  0  0  0  0  0  0  0  0  0  0
  -22.6596  -22.6325  -36.9263 O   0  0  0  0  0  0  0  0  0  0  0  0
   -4.4205  -33.8694  -35.3178 H   0  0  0  0  0  0  0  0  0  0  0  0
   -5.2720  -32.8370  -36.4642 H   0  0  0  0  0  0  0  0  0  0  0  0
   -6.7091  -33.2044  -32.4146 H   0  0  0  0  0  0  0  0  0  0  0  0
   -5.2704  -34.0867  -32.9219 H   0  0  0  0  0  0  0  0  0  0  0  0
   -3.1033  -32.8253  -33.3964 H   0  0  0  0  0  0  0  0  0  0  0  0
   -3.0470  -31.0732  -33.2183 H   0  0  0  0  0  0  0  0  0  0  0  0
   -7.3612  -31.5711  -35.7300 H   0  0  0  0  0  0  0  0  0  0  0  0
   -7.9477  -31.7204  -34.0809 H   0  0  0  0  0  0  0  0  0  0  0  0
   -4.2720  -29.5817  -34.8871 H   0  0  0  0  0  0  0  0  0  0  0  0
   -5.1794  -30.3000  -36.2085 H   0  0  0  0  0  0  0  0  0  0  0  0
   -6.6203  -30.6686  -32.1435 H   0  0  0  0  0  0  0  0  0  0  0  0
   -5.1278  -29.8014  -32.4699 H   0  0  0  0  0  0  0  0  0  0  0  0
   -6.8669  -33.8391  -34.8246 H   0  0  0  0  0  0  0  0  0  0  0  0
   -3.2072  -31.7099  -35.6274 H   0  0  0  0  0  0  0  0  0  0  0  0
   -4.6428  -32.0775  -31.5805 H   0  0  0  0  0  0  0  0  0  0  0  0
  -24.4576  -20.5438  -38.7106 H   0  0  0  0  0  0  0  0  0  0  0  0
  -25.3443  -21.8105  -39.5825 H   0  0  0  0  0  0  0  0  0  0  0  0
  -23.6400  -22.0472  -39.1687 H   0  0  0  0  0  0  0  0  0  0  0  0
  -23.3590  -23.1945  -34.6275 H   0  0  0  0  0  0  0  0  0  0  0  0
  -24.8090  -22.1762  -34.4558 H   0  0  0  0  0  0  0  0  0  0  0  0
  -24.8726  -23.7035  -35.3613 H   0  0  0  0  0  0  0  0  0  0  0  0
  -21.0200  -23.5099  -38.4715 H   0  0  0  0  0  0  0  0  0  0  0  0
  -21.5737  -25.2002  -38.5168 H   0  0  0  0  0  0  0  0  0  0  0  0
  -25.1861  -23.3217  -37.6453 H   0  0  0  0  0  0  0  0  0  0  0  0
  -25.9055  -21.7847  -37.1423 H   0  0  0  0  0  0  0  0  0  0  0  0
  -20.2703  -24.0628  -36.0077 H   0  0  0  0  0  0  0  0  0  0  0  0
  -20.5089  -25.7442  -36.4811 H   0  0  0  0  0  0  0  0  0  0  0  0
  -18.6138  -23.7648  -37.8529 H   0  0  0  0  0  0  0  0  0  0  0  0
  -18.8982  -25.4109  -38.4017 H   0  0  0  0  0  0  0  0  0  0  0  0
  -17.8095  -24.6251  -35.6581 H   0  0  0  0  0  0  0  0  0  0  0  0
  -18.0032  -26.2761  -36.2401 H   0  0  0  0  0  0  0  0  0  0  0  0
  -16.1549  -24.1428  -37.4402 H   0  0  0  0  0  0  0  0  0  0  0  0
  -16.3377  -25.7677  -38.0944 H   0  0  0  0  0  0  0  0  0  0  0  0
  -15.4264  -25.1867  -35.2473 H   0  0  0  0  0  0  0  0  0  0  0  0
  -15.3904  -26.7508  -36.0536 H   0  0  0  0  0  0  0  0  0  0  0  0
  -13.7466  -24.2878  -36.8570 H   0  0  0  0  0  0  0  0  0  0  0  0
  -13.7027  -25.8410  -37.6959 H   0  0  0  0  0  0  0  0  0  0  0  0
  -12.9689  -25.4082  -34.7606 H   0  0  0  0  0  0  0  0  0  0  0  0
  -12.9260  -26.9612  -35.5999 H   0  0  0  0  0  0  0  0  0  0  0  0
  -11.2821  -24.4979  -36.4010 H   0  0  0  0  0  0  0  0  0  0  0  0
  -11.2457  -26.0608  -37.2101 H   0  0  0  0  0  0  0  0  0  0  0  0
   -9.3696  -25.5097  -35.4738 H   0  0  0  0  0  0  0  0  0  0  0  0
  -10.5966  -25.8273  -34.2602 H   0  0  0  0  0  0  0  0  0  0  0  0
  -10.7327  -28.1300  -34.7747 H   0  0  0  0  0  0  0  0  0  0  0  0
  -10.1123  -27.9151  -36.4261 H   0  0  0  0  0  0  0  0  0  0  0  0
  -23.7294  -21.0320  -36.2099 H   0  0  0  0  0  0  0  0  0  0  0  0
   -6.4576  -28.3700  -34.1804 H   0  0  0  0  0  0  0  0  0  0  0  0
   -8.1015  -27.1442  -34.6105 H   0  0  0  0  0  0  0  0  0  0  0  0
  1 15  1  0  0  0  0
  1 30  2  0  0  0  0
  1 32  1  0  0  0  0
  2 28  1  0  0  0  0
  2 29  1  0  0  0  0
  2 31  2  0  0  0  0
  3  9  1  0  0  0  0
  3 10  1  0  0  0  0
  4  9  1  0  0  0  0
  4 11  1  0  0  0  0
  5 10  1  0  0  0  0
  5 11  1  0  0  0  0
  6  9  1  0  0  0  0
  6 12  1  0  0  0  0
  7 10  1  0  0  0  0
  7 12  1  0  0  0  0
  8 11  1  0  0  0  0
  8 12  1  0  0  0  0
 12 28  1  0  0  0  0
 13 16  1  0  0  0  0
 14 27  1  0  0  0  0
 15 17  1  0  0  0  0
 16 27  1  0  0  0  0
 17 18  1  0  0  0  0
 18 19  1  0  0  0  0
 19 20  1  0  0  0  0
 20 21  1  0  0  0  0
 21 22  1  0  0  0  0
 22 23  1  0  0  0  0
 23 24  1  0  0  0  0
 24 25  1  0  0  0  0
 25 26  1  0  0  0  0
 26 29  1  0  0  0  0
 27 32  1  0  0  0  0
  3 33  1  0  0  0  0
  3 34  1  0  0  0  0
  4 35  1  0  0  0  0
  4 36  1  0  0  0  0
  5 37  1  0  0  0  0
  5 38  1  0  0  0  0
  6 39  1  0  0  0  0
  6 40  1  0  0  0  0
  7 41  1  0  0  0  0
  7 42  1  0  0  0  0
  8 43  1  0  0  0  0
  8 44  1  0  0  0  0
  9 45  1  0  0  0  0
 10 46  1  0  0  0  0
 11 47  1  0  0  0  0
 13 48  1  0  0  0  0
 13 49  1  0  0  0  0
 13 50  1  0  0  0  0
 14 51  1  0  0  0  0
 14 52  1  0  0  0  0
 14 53  1  0  0  0  0
 15 54  1  0  0  0  0
 15 55  1  0  0  0  0
 16 56  1  0  0  0  0
 16 57  1  0  0  0  0
 17 58  1  0  0  0  0
 17 59  1  0  0  0  0
 18 60  1  0  0  0  0
 18 61  1  0  0  0  0
 19 62  1  0  0  0  0
 19 63  1  0  0  0  0
 20 64  1  0  0  0  0
 20 65  1  0  0  0  0
 21 66  1  0  0  0  0
 21 67  1  0  0  0  0
 22 68  1  0  0  0  0
 22 69  1  0  0  0  0
 23 70  1  0  0  0  0
 23 71  1  0  0  0  0
 24 72  1  0  0  0  0
 24 73  1  0  0  0  0
 25 74  1  0  0  0  0
 25 75  1  0  0  0  0
 26 76  1  0  0  0  0
 26 77  1  0  0  0  0
 27 78  1  0  0  0  0
 28 79  1  0  0  0  0
 29 80  1  0  0  0  0
M  END
> <Name>
A_1

> <SourceTag>
A_1

> <Gold.Version>
5.2

> <Gold.Id.Protein>
6HGV|6HGV_protein|mol2

> <Gold.Goldscore.Fitness>
83.7266

> <Gold.Goldscore.Internal.Vdw>
-18.7849

> <Gold.Goldscore.Internal.Torsion>
-6.3117

> <Gold.Goldscore.External.Vdw>
70.5856

> <Gold.Goldscore.Internal.HBond>
0.0000

> <Gold.Goldscore.External.HBond>
0.0000

> <Gold.Goldscore.Internal.Correction>
-11.7681

> <Gold.Goldscore.Internal.Vdw.Weighted>
-18.7849

> <Gold.Goldscore.Internal.Torsion.Weighted>
-6.3117

> <Gold.Goldscore.External.Vdw.Weighted>
97.0552

> <Gold.Goldscore.Internal.HBond.Weighted>
0.0000

> <Gold.Goldscore.External.HBond.Weighted>
0.0000

> <Gold.Goldscore.Internal.Correction.Weighted>
-11.7681

> <Gold.Protein.RotatedTorsions>
[ 3781 1176 1175 1172 ] final -136.25 input   60.00 | X-H torsion
[ 3847 1247 1246 1244 ] final  116.13 input   60.00 | X-H torsion
[ 4507 1931 1930 1928 ] final   94.75 input   60.00 | X-H torsion
[ 3677 1070 1069 1066 ] final  -92.43 input   60.00 | X-H torsion
[ 3525  925  924  922 ] final   49.99 input   59.99 | X-H torsion
[ 4531 1957 1955 1953 ] final  119.43 input   60.00 | X-H torsion

> <Gold.Protein.ActiveResidues>
 PHE267  PRO268  MET310  ASP335  TRP336  MET339  TYR343  THR360  PRO361  ILE363 
 PRO371  SER374  ILE375  ASN378  PHE381  TYR383  GLN384  PHE387  LEU408  LEU417 
 MET419  LEU428  TYR466  MET469  ASN472  ASP496  VAL498  LEU499  MET503  HIS524 
 TRP525 

> <Gold.Protein.RotatedAtoms>
   -2.9548  -29.7900  -30.8678 H   0  0  0  0  0  0  0  0  0  0  0  0  # atno 3525 bound_to 925 
  -11.8467  -23.7975  -31.3866 H   0  0  0  0  0  0  0  0  0  0  0  0  # atno 3677 bound_to 1070
   -9.3353  -36.3146  -33.5239 H   0  0  0  0  0  0  0  0  0  0  0  0  # atno 3781 bound_to 1176
  -14.3234  -28.3466  -37.7411 H   0  0  0  0  0  0  0  0  0  0  0  0  # atno 3847 bound_to 1247
  -12.4477  -24.1977  -39.0437 H   0  0  0  0  0  0  0  0  0  0  0  0  # atno 4507 bound_to 1931
   -2.3877  -34.0438  -36.8049 H   0  0  0  0  0  0  0  0  0  0  0  0  # atno 4531 bound_to 1957
  -10.0646  -37.2235  -32.3881 LP  0  0  0  0  0  0  0  0  0  0  0  0  # atno 5205 bound_to 1176
  -10.7157  -37.0990  -33.8805 LP  0  0  0  0  0  0  0  0  0  0  0  0  # atno 5206 bound_to 1176
  -15.7584  -28.6774  -37.0487 LP  0  0  0  0  0  0  0  0  0  0  0  0  # atno 5215 bound_to 1247
  -15.4888  -27.2112  -37.7153 LP  0  0  0  0  0  0  0  0  0  0  0  0  # atno 5216 bound_to 1247
  -13.5001  -25.3835  -39.4106 LP  0  0  0  0  0  0  0  0  0  0  0  0  # atno 5217 bound_to 1931
  -13.2514  -24.1556  -40.4581 LP  0  0  0  0  0  0  0  0  0  0  0  0  # atno 5218 bound_to 1931
  -11.2587  -22.3719  -30.8668 LP  0  0  0  0  0  0  0  0  0  0  0  0  # atno 5224 bound_to 1070
  -12.7494  -22.8585  -30.4111 LP  0  0  0  0  0  0  0  0  0  0  0  0  # atno 5225 bound_to 1070

$$$$
A_47|SEH_inhibs_minimized|sdf|33|dock10
  -GOLD-   41821 9583D 1   1.00000     0.00000

 55 58  0  0  0  0  0  0  0  0  1 V2000
   -6.1470  -31.5845  -33.1649 C   0  0  0  0  0  0  0  0  0  0  0  0
   -4.9597  -32.2928  -35.1462 C   0  0  0  0  0  0  0  0  0  0  0  0
   -9.2698  -32.5304  -33.6813 C   0  0  0  0  0  0  0  0  0  0  0  0
   -8.5824  -34.1401  -35.3466 C   0  0  0  0  0  0  0  0  0  0  0  0
   -4.9572  -31.6226  -32.4382 C   0  0  0  0  0  0  0  0  0  0  0  0
   -3.7697  -32.3309  -34.4195 C   0  0  0  0  0  0  0  0  0  0  0  0
  -10.1966  -33.4444  -33.1803 C   0  0  0  0  0  0  0  0  0  0  0  0
   -9.5092  -35.0543  -34.8456 C   0  0  0  0  0  0  0  0  0  0  0  0
  -16.1983  -25.7096  -36.0200 C   0  0  0  0  0  0  0  0  0  0  0  0
  -15.6501  -24.6735  -36.7436 C   0  0  0  0  0  0  0  0  0  0  0  0
  -14.1026  -26.5155  -35.5860 C   0  0  0  0  0  0  0  0  0  0  0  0
   -6.1483  -31.9194  -34.5191 C   0  0  0  0  0  0  0  0  0  0  0  0
   -8.4625  -32.8782  -34.7645 C   0  0  0  0  0  0  0  0  0  0  0  0
   -3.7685  -31.9958  -33.0655 C   0  0  0  0  0  0  0  0  0  0  0  0
  -10.3163  -34.7064  -33.7625 C   0  0  0  0  0  0  0  0  0  0  0  0
  -13.5544  -25.4793  -36.3097 C   0  0  0  0  0  0  0  0  0  0  0  0
  -10.4272  -28.3648  -35.0243 C   0  0  0  0  0  0  0  0  0  0  0  0
  -11.3940  -24.7735  -35.2062 C   0  0  0  0  0  0  0  0  0  0  0  0
  -11.0878  -25.9929  -34.3446 C   0  0  0  0  0  0  0  0  0  0  0  0
  -11.2708  -26.6706  -36.6460 C   0  0  0  0  0  0  0  0  0  0  0  0
  -12.0481  -25.3608  -36.4660 C   0  0  1  0  0  0  0  0  0  0  0  0
   -8.0281  -30.4466  -35.4761 C   0  0  0  0  0  0  0  0  0  0  0  0
   -9.4472  -30.4059  -36.0478 C   0  0  0  0  0  0  0  0  0  0  0  0
   -7.4481  -31.8775  -35.3124 C   0  0  0  0  0  0  0  0  0  0  0  0
  -15.4345  -26.6493  -35.4283 N   0  0  0  0  0  0  0  0  0  0  0  0
  -14.3183  -24.5398  -36.9015 N   0  0  0  0  0  0  0  0  0  0  0  0
  -10.8946  -27.0815  -35.2984 N   0  0  0  0  0  0  0  0  0  0  0  0
   -9.9717  -29.0627  -36.1371 N   0  0  0  0  0  0  0  0  0  0  0  0
  -10.4160  -28.8405  -33.8857 O   0  0  0  0  0  0  0  0  0  0  0  0
   -2.6258  -32.0332  -32.3679 F   0  0  0  0  0  0  0  0  0  0  0  0
  -11.2066  -35.5842  -33.2821 F   0  0  0  0  0  0  0  0  0  0  0  0
   -7.0685  -31.2930  -32.6678 H   0  0  0  0  0  0  0  0  0  0  0  0
   -4.9515  -32.5560  -36.2007 H   0  0  0  0  0  0  0  0  0  0  0  0
   -9.1837  -31.5493  -33.2217 H   0  0  0  0  0  0  0  0  0  0  0  0
   -7.9581  -34.4195  -36.1913 H   0  0  0  0  0  0  0  0  0  0  0  0
   -4.9563  -31.3625  -31.3838 H   0  0  0  0  0  0  0  0  0  0  0  0
   -2.8444  -32.6218  -34.9077 H   0  0  0  0  0  0  0  0  0  0  0  0
  -10.8254  -33.1734  -32.3374 H   0  0  0  0  0  0  0  0  0  0  0  0
   -9.6028  -36.0365  -35.2991 H   0  0  0  0  0  0  0  0  0  0  0  0
  -17.2686  -25.8164  -35.8935 H   0  0  0  0  0  0  0  0  0  0  0  0
  -16.2647  -23.9190  -37.2188 H   0  0  0  0  0  0  0  0  0  0  0  0
  -13.4947  -27.2744  -35.1075 H   0  0  0  0  0  0  0  0  0  0  0  0
  -12.0127  -24.0392  -34.6809 H   0  0  0  0  0  0  0  0  0  0  0  0
  -10.4522  -24.2846  -35.4861 H   0  0  0  0  0  0  0  0  0  0  0  0
  -10.1941  -25.8518  -33.7296 H   0  0  0  0  0  0  0  0  0  0  0  0
  -11.9315  -26.2553  -33.6974 H   0  0  0  0  0  0  0  0  0  0  0  0
  -11.8317  -27.4643  -37.1506 H   0  0  0  0  0  0  0  0  0  0  0  0
  -10.3387  -26.4976  -37.1968 H   0  0  0  0  0  0  0  0  0  0  0  0
  -11.8760  -24.6711  -37.3405 H   0  0  0  0  0  0  0  0  0  0  0  0
   -7.3886  -29.8366  -36.1247 H   0  0  0  0  0  0  0  0  0  0  0  0
   -8.0339  -29.9518  -34.4951 H   0  0  0  0  0  0  0  0  0  0  0  0
  -10.1454  -31.0003  -35.4514 H   0  0  0  0  0  0  0  0  0  0  0  0
   -9.4463  -30.8137  -37.0641 H   0  0  0  0  0  0  0  0  0  0  0  0
   -7.2224  -32.2124  -36.3353 H   0  0  0  0  0  0  0  0  0  0  0  0
  -10.0092  -28.6121  -37.0457 H   0  0  0  0  0  0  0  0  0  0  0  0
  1  5  1  0  0  0  0
  1 12  2  0  0  0  0
  2  6  2  0  0  0  0
  2 12  1  0  0  0  0
  3  7  1  0  0  0  0
  3 13  2  0  0  0  0
  4  8  2  0  0  0  0
  4 13  1  0  0  0  0
  5 14  2  0  0  0  0
  6 14  1  0  0  0  0
  7 15  2  0  0  0  0
  8 15  1  0  0  0  0
  9 10  2  0  0  0  0
  9 25  1  0  0  0  0
 10 26  1  0  0  0  0
 11 16  1  0  0  0  0
 11 25  2  0  0  0  0
 12 24  1  0  0  0  0
 13 24  1  0  0  0  0
 14 30  1  0  0  0  0
 15 31  1  0  0  0  0
 16 21  1  0  0  0  0
 16 26  2  0  0  0  0
 17 27  1  0  0  0  0
 17 28  1  0  0  0  0
 17 29  2  0  0  0  0
 18 19  1  0  0  0  0
 18 21  1  0  0  0  0
 19 27  1  0  0  0  0
 20 21  1  0  0  0  0
 20 27  1  0  0  0  0
 22 23  1  0  0  0  0
 22 24  1  0  0  0  0
 23 28  1  0  0  0  0
  1 32  1  0  0  0  0
  2 33  1  0  0  0  0
  3 34  1  0  0  0  0
  4 35  1  0  0  0  0
  5 36  1  0  0  0  0
  6 37  1  0  0  0  0
  7 38  1  0  0  0  0
  8 39  1  0  0  0  0
  9 40  1  0  0  0  0
 10 41  1  0  0  0  0
 11 42  1  0  0  0  0
 18 43  1  0  0  0  0
 18 44  1  0  0  0  0
 19 45  1  0  0  0  0
 19 46  1  0  0  0  0
 20 47  1  0  0  0  0
 20 48  1  0  0  0  0
 21 49  1  0  0  0  0
 22 50  1  0  0  0  0
 22 51  1  0  0  0  0
 23 52  1  0  0  0  0
 23 53  1  0  0  0  0
 24 54  1  0  0  0  0
 28 55  1  0  0  0  0
M  END
> <Name>
A_47

> <SourceTag>
A_47

> <Gold.Version>
5.2

> <Gold.Id.Protein>
6HGV|6HGV_protein|mol2

> <Gold.Goldscore.Fitness>
64.4946

> <Gold.Goldscore.Internal.Vdw>
-5.6759

> <Gold.Goldscore.Internal.Torsion>
-4.5587

> <Gold.Goldscore.External.Vdw>
51.6632

> <Gold.Goldscore.Internal.HBond>
0.0000

> <Gold.Goldscore.External.HBond>
0.0535

> <Gold.Goldscore.Internal.Correction>
-3.6388

> <Gold.Goldscore.Hbonds>
donor molecule, donor type, donor heavy atom, donor atom, acceptor molecule, acceptor atom, score
      P1  H  1256  3854       L1    29  0.03

> <Gold.Goldscore.Internal.Vdw.Weighted>
-5.6759

> <Gold.Goldscore.Internal.Torsion.Weighted>
-4.5587

> <Gold.Goldscore.External.Vdw.Weighted>
71.0369

> <Gold.Goldscore.Internal.HBond.Weighted>
0.0000

> <Gold.Goldscore.External.HBond.Weighted>
0.0535

> <Gold.Goldscore.Internal.Correction.Weighted>
-3.6388

> <Gold.Protein.RotatedTorsions>
[ 3781 1176 1175 1172 ] final  118.09 input   60.00 | X-H torsion
[ 3847 1247 1246 1244 ] final  121.20 input   60.00 | X-H torsion
[ 4507 1931 1930 1928 ] final  -57.22 input   60.00 | X-H torsion
[ 3677 1070 1069 1066 ] final -127.91 input   60.00 | X-H torsion
[ 3525  925  924  922 ] final   35.51 input   59.99 | X-H torsion
[ 4531 1957 1955 1953 ] final   97.88 input   60.00 | X-H torsion

> <Gold.Protein.ActiveResidues>
 PHE267  PRO268  MET310  ASP335  TRP336  MET339  TYR343  THR360  PRO361  ILE363 
 PRO371  SER374  ILE375  ASN378  PHE381  TYR383  GLN384  PHE387  LEU408  LEU417 
 MET419  LEU428  TYR466  MET469  ASN472  ASP496  VAL498  LEU499  MET503  HIS524 
 TRP525 

> <Gold.Protein.RotatedAtoms>
   -3.1680  -29.7016  -30.8186 H   0  0  0  0  0  0  0  0  0  0  0  0  # atno 3525 bound_to 925 
  -11.3700  -23.4897  -31.4457 H   0  0  0  0  0  0  0  0  0  0  0  0  # atno 3677 bound_to 1070
   -9.8658  -37.1001  -32.3716 H   0  0  0  0  0  0  0  0  0  0  0  0  # atno 3781 bound_to 1176
  -14.3131  -28.2713  -37.7740 H   0  0  0  0  0  0  0  0  0  0  0  0  # atno 3847 bound_to 1247
  -13.6746  -25.2461  -39.8780 H   0  0  0  0  0  0  0  0  0  0  0  0  # atno 4507 bound_to 1931
   -2.7021  -33.9031  -36.7427 H   0  0  0  0  0  0  0  0  0  0  0  0  # atno 4531 bound_to 1957
  -10.7994  -37.2229  -33.6987 LP  0  0  0  0  0  0  0  0  0  0  0  0  # atno 5205 bound_to 1176
   -9.4467  -36.3086  -33.7303 LP  0  0  0  0  0  0  0  0  0  0  0  0  # atno 5206 bound_to 1176
  -15.6963  -28.7331  -37.0518 LP  0  0  0  0  0  0  0  0  0  0  0  0  # atno 5215 bound_to 1247
  -15.5612  -27.2315  -37.6792 LP  0  0  0  0  0  0  0  0  0  0  0  0  # atno 5216 bound_to 1247
  -12.9007  -23.8560  -40.2196 LP  0  0  0  0  0  0  0  0  0  0  0  0  # atno 5217 bound_to 1931
  -12.6152  -24.6274  -38.8089 LP  0  0  0  0  0  0  0  0  0  0  0  0  # atno 5218 bound_to 1931
  -11.6898  -22.1744  -30.5424 LP  0  0  0  0  0  0  0  0  0  0  0  0  # atno 5224 bound_to 1070
  -12.7984  -23.3660  -30.6760 LP  0  0  0  0  0  0  0  0  0  0  0  0  # atno 5225 bound_to 1070

$$$$
A_28|SEH_inhibs_minimized|sdf|23|dock3
  -GOLD-   41821 9393D 1   1.00000     0.00000

 47 49  0  0  0  0  0  0  0  0  1 V2000
   -7.3798  -30.5081  -35.4793 C   0  0  0  0  0  0  0  0  0  0  0  0
   -8.7344  -30.8376  -35.5243 C   0  0  0  0  0  0  0  0  0  0  0  0
   -6.9848  -29.2361  -35.0646 C   0  0  0  0  0  0  0  0  0  0  0  0
   -9.6940  -29.8951  -35.1545 C   0  0  0  0  0  0  0  0  0  0  0  0
   -7.9444  -28.2938  -34.6947 C   0  0  0  0  0  0  0  0  0  0  0  0
  -15.8575  -25.2775  -37.7476 C   0  0  0  0  0  0  0  0  0  0  0  0
  -16.4002  -24.8955  -38.9745 C   0  0  0  0  0  0  0  0  0  0  0  0
  -18.5473  -24.5575  -37.9195 C   0  0  0  0  0  0  0  0  0  0  0  0
   -9.2990  -28.6233  -34.7397 C   0  0  0  0  0  0  0  0  0  0  0  0
  -16.6598  -25.3000  -36.6067 C   0  0  0  0  0  0  0  0  0  0  0  0
  -17.7451  -24.5354  -39.0604 C   0  0  0  0  0  0  0  0  0  0  0  0
  -18.0047  -24.9398  -36.6926 C   0  0  0  0  0  0  0  0  0  0  0  0
  -13.7344  -26.6309  -35.1796 C   0  0  0  0  0  0  0  0  0  0  0  0
  -10.7828  -25.0771  -33.8020 C   0  0  0  0  0  0  0  0  0  0  0  0
   -9.7455  -26.1820  -34.0115 C   0  0  0  0  0  0  0  0  0  0  0  0
  -11.7642  -25.0042  -34.9653 C   0  0  0  0  0  0  0  0  0  0  0  0
  -11.3913  -27.3881  -35.4820 C   0  0  0  0  0  0  0  0  0  0  0  0
  -10.3628  -27.5783  -34.3294 C   0  0  1  0  0  0  0  0  0  0  0  0
  -11.0788  -28.1174  -33.0676 C   0  0  0  0  0  0  0  0  0  0  0  0
  -16.0372  -25.7162  -35.3054 C   0  0  0  0  0  0  0  0  0  0  0  0
  -12.3631  -26.3206  -35.2092 N   0  0  0  0  0  0  0  0  0  0  0  0
  -14.6004  -25.5529  -35.3163 N   0  0  0  0  0  0  0  0  0  0  0  0
  -14.1564  -27.7843  -35.0418 O   0  0  0  0  0  0  0  0  0  0  0  0
  -18.4138  -24.0643  -40.5744 Cl  0  0  0  0  0  0  0  0  0  0  0  0
  -19.0279  -24.9550  -35.3024 Cl  0  0  0  0  0  0  0  0  0  0  0  0
   -6.6323  -31.2420  -35.7661 H   0  0  0  0  0  0  0  0  0  0  0  0
   -9.0421  -31.8280  -35.8461 H   0  0  0  0  0  0  0  0  0  0  0  0
   -5.9299  -28.9795  -35.0290 H   0  0  0  0  0  0  0  0  0  0  0  0
  -10.7473  -30.1606  -35.1922 H   0  0  0  0  0  0  0  0  0  0  0  0
   -7.6272  -27.3059  -34.3718 H   0  0  0  0  0  0  0  0  0  0  0  0
  -14.8083  -25.5562  -37.6917 H   0  0  0  0  0  0  0  0  0  0  0  0
  -15.7630  -24.8827  -39.8551 H   0  0  0  0  0  0  0  0  0  0  0  0
  -19.5959  -24.2756  -37.9879 H   0  0  0  0  0  0  0  0  0  0  0  0
  -11.3303  -25.2623  -32.8703 H   0  0  0  0  0  0  0  0  0  0  0  0
  -10.2748  -24.1131  -33.6859 H   0  0  0  0  0  0  0  0  0  0  0  0
   -9.0881  -25.8797  -34.8391 H   0  0  0  0  0  0  0  0  0  0  0  0
   -9.1014  -26.2482  -33.1250 H   0  0  0  0  0  0  0  0  0  0  0  0
  -12.5047  -24.2372  -34.7400 H   0  0  0  0  0  0  0  0  0  0  0  0
  -11.2503  -24.7041  -35.8860 H   0  0  0  0  0  0  0  0  0  0  0  0
  -10.8758  -27.1087  -36.4112 H   0  0  0  0  0  0  0  0  0  0  0  0
  -11.9023  -28.3353  -35.6913 H   0  0  0  0  0  0  0  0  0  0  0  0
  -11.5221  -29.0851  -33.2870 H   0  0  0  0  0  0  0  0  0  0  0  0
  -11.8587  -27.4226  -32.7676 H   0  0  0  0  0  0  0  0  0  0  0  0
  -10.3597  -28.2243  -32.2596 H   0  0  0  0  0  0  0  0  0  0  0  0
  -16.4379  -25.1210  -34.4778 H   0  0  0  0  0  0  0  0  0  0  0  0
  -16.2530  -26.7669  -35.0849 H   0  0  0  0  0  0  0  0  0  0  0  0
  -14.2138  -24.6254  -35.4268 H   0  0  0  0  0  0  0  0  0  0  0  0
  1  2  2  0  0  0  0
  1  3  1  0  0  0  0
  2  4  1  0  0  0  0
  3  5  2  0  0  0  0
  4  9  2  0  0  0  0
  5  9  1  0  0  0  0
  6  7  1  0  0  0  0
  6 10  2  0  0  0  0
  7 11  2  0  0  0  0
  8 11  1  0  0  0  0
  8 12  2  0  0  0  0
  9 18  1  0  0  0  0
 10 12  1  0  0  0  0
 10 20  1  0  0  0  0
 11 24  1  0  0  0  0
 12 25  1  0  0  0  0
 13 21  1  0  0  0  0
 13 22  1  0  0  0  0
 13 23  2  0  0  0  0
 14 15  1  0  0  0  0
 14 16  1  0  0  0  0
 15 18  1  0  0  0  0
 16 21  1  0  0  0  0
 17 18  1  0  0  0  0
 17 21  1  0  0  0  0
 18 19  1  0  0  0  0
 20 22  1  0  0  0  0
  1 26  1  0  0  0  0
  2 27  1  0  0  0  0
  3 28  1  0  0  0  0
  4 29  1  0  0  0  0
  5 30  1  0  0  0  0
  6 31  1  0  0  0  0
  7 32  1  0  0  0  0
  8 33  1  0  0  0  0
 14 34  1  0  0  0  0
 14 35  1  0  0  0  0
 15 36  1  0  0  0  0
 15 37  1  0  0  0  0
 16 38  1  0  0  0  0
 16 39  1  0  0  0  0
 17 40  1  0  0  0  0
 17 41  1  0  0  0  0
 19 42  1  0  0  0  0
 19 43  1  0  0  0  0
 19 44  1  0  0  0  0
 20 45  1  0  0  0  0
 20 46  1  0  0  0  0
 22 47  1  0  0  0  0
M  END
> <Name>
A_28

> <SourceTag>
A_28

> <Gold.Version>
5.2

> <Gold.Id.Protein>
6HGV|6HGV_protein|mol2

> <Gold.Goldscore.Fitness>
67.8646

> <Gold.Goldscore.Internal.Vdw>
-17.9185

> <Gold.Goldscore.Internal.Torsion>
-4.0821

> <Gold.Goldscore.External.Vdw>
48.9739

> <Gold.Goldscore.Internal.HBond>
0.0000

> <Gold.Goldscore.External.HBond>
2.2734

> <Gold.Goldscore.Internal.Correction>
-20.2527

> <Gold.Goldscore.Hbonds>
donor molecule, donor type, donor heavy atom, donor atom, acceptor molecule, acceptor atom, score
      L1  H    22    47       P1   853  0.38

> <Gold.Goldscore.Internal.Vdw.Weighted>
-17.9185

> <Gold.Goldscore.Internal.Torsion.Weighted>
-4.0821

> <Gold.Goldscore.External.Vdw.Weighted>
67.3391

> <Gold.Goldscore.Internal.HBond.Weighted>
0.0000

> <Gold.Goldscore.External.HBond.Weighted>
2.2734

> <Gold.Goldscore.Internal.Correction.Weighted>
-20.2527

> <Gold.Protein.RotatedTorsions>
[ 3781 1176 1175 1172 ] final   37.55 input   60.00 | X-H torsion
[ 3847 1247 1246 1244 ] final  129.86 input   60.00 | X-H torsion
[ 4507 1931 1930 1928 ] final   62.62 input   60.00 | X-H torsion
[ 3677 1070 1069 1066 ] final -162.19 input   60.00 | X-H torsion
[ 3525  925  924  922 ] final   42.50 input   59.99 | X-H torsion
[ 4531 1957 1955 1953 ] final  -29.30 input   60.00 | X-H torsion

> <Gold.Protein.ActiveResidues>
 PHE267  PRO268  MET310  ASP335  TRP336  MET339  TYR343  THR360  PRO361  ILE363 
 PRO371  SER374  ILE375  ASN378  PHE381  TYR383  GLN384  PHE387  LEU408  LEU417 
 MET419  LEU428  TYR466  MET469  ASN472  ASP496  VAL498  LEU499  MET503  HIS524 
 TRP525 

> <Gold.Protein.RotatedAtoms>
   -3.0663  -29.7431  -30.8496 H   0  0  0  0  0  0  0  0  0  0  0  0  # atno 3525 bound_to 925 
  -11.1128  -23.0218  -31.3057 H   0  0  0  0  0  0  0  0  0  0  0  0  # atno 3677 bound_to 1070
  -10.7730  -37.4323  -33.1006 H   0  0  0  0  0  0  0  0  0  0  0  0  # atno 3781 bound_to 1176
  -14.3114  -28.1395  -37.8251 H   0  0  0  0  0  0  0  0  0  0  0  0  # atno 3847 bound_to 1247
  -12.6179  -24.6305  -38.8152 H   0  0  0  0  0  0  0  0  0  0  0  0  # atno 4507 bound_to 1931
   -2.4659  -32.2428  -36.7589 H   0  0  0  0  0  0  0  0  0  0  0  0  # atno 4531 bound_to 1957
   -9.9238  -36.4833  -34.1136 LP  0  0  0  0  0  0  0  0  0  0  0  0  # atno 5205 bound_to 1176
   -9.4086  -36.7135  -32.5813 LP  0  0  0  0  0  0  0  0  0  0  0  0  # atno 5206 bound_to 1176
  -15.5814  -28.8160  -37.0651 LP  0  0  0  0  0  0  0  0  0  0  0  0  # atno 5215 bound_to 1247
  -15.6778  -27.2812  -37.6144 LP  0  0  0  0  0  0  0  0  0  0  0  0  # atno 5216 bound_to 1247
  -13.6811  -25.2483  -39.8810 LP  0  0  0  0  0  0  0  0  0  0  0  0  # atno 5217 bound_to 1931
  -12.8989  -23.8550  -40.2179 LP  0  0  0  0  0  0  0  0  0  0  0  0  # atno 5218 bound_to 1931
  -12.2009  -22.2788  -30.3506 LP  0  0  0  0  0  0  0  0  0  0  0  0  # atno 5224 bound_to 1070
  -12.5462  -23.7328  -31.0089 LP  0  0  0  0  0  0  0  0  0  0  0  0  # atno 5225 bound_to 1070

$$$$
A_15|SEH_inhibs_minimized|sdf|16|dock5
  -GOLD-   41821 9213D 1   1.00000     0.00000

 70 74  0  0  0  0  0  0  0  0  1 V2000
  -23.3801  -22.4313  -39.0215 C   0  0  0  0  0  0  0  0  0  0  0  0
  -23.3534  -22.5702  -37.6338 C   0  0  0  0  0  0  0  0  0  0  0  0
  -22.3080  -22.8868  -39.7889 C   0  0  0  0  0  0  0  0  0  0  0  0
  -22.2546  -23.1649  -37.0136 C   0  0  0  0  0  0  0  0  0  0  0  0
  -21.2093  -23.4815  -39.1686 C   0  0  0  0  0  0  0  0  0  0  0  0
  -15.3503  -25.1132  -37.8688 C   0  0  0  0  0  0  0  0  0  0  0  0
  -16.4253  -25.8253  -35.8257 C   0  0  0  0  0  0  0  0  0  0  0  0
  -16.5371  -24.5085  -38.2825 C   0  0  0  0  0  0  0  0  0  0  0  0
  -17.6122  -25.2205  -36.2394 C   0  0  0  0  0  0  0  0  0  0  0  0
  -15.2943  -25.7716  -36.6403 C   0  0  0  0  0  0  0  0  0  0  0  0
  -21.1825  -23.6205  -37.7810 C   0  0  0  0  0  0  0  0  0  0  0  0
  -17.6680  -24.5621  -37.4678 C   0  0  0  0  0  0  0  0  0  0  0  0
  -10.7584  -26.4159  -35.4880 C   0  0  0  0  0  0  0  0  0  0  0  0
   -7.4485  -33.3128  -35.5248 C   0  0  0  0  0  0  0  0  0  0  0  0
   -9.9379  -33.1888  -35.7986 C   0  0  0  0  0  0  0  0  0  0  0  0
   -8.9481  -33.7236  -33.5576 C   0  0  0  0  0  0  0  0  0  0  0  0
   -8.5586  -31.0974  -35.9121 C   0  0  0  0  0  0  0  0  0  0  0  0
   -7.5664  -31.6333  -33.6660 C   0  0  0  0  0  0  0  0  0  0  0  0
  -10.0615  -31.5092  -33.9401 C   0  0  0  0  0  0  0  0  0  0  0  0
   -8.5951  -32.5965  -36.2574 C   0  0  0  0  0  0  0  0  0  0  0  0
   -7.6004  -33.1338  -34.0051 C   0  0  0  0  0  0  0  0  0  0  0  0
  -10.1023  -33.0093  -34.2803 C   0  0  0  0  0  0  0  0  0  0  0  0
   -8.7159  -30.8901  -34.3870 C   0  0  0  0  0  0  0  0  0  0  0  0
  -14.0107  -26.4262  -36.1922 C   0  0  0  0  0  0  0  0  0  0  0  0
  -20.0004  -24.2604  -37.1140 C   0  0  0  0  0  0  0  0  0  0  0  0
   -8.6789  -29.3978  -34.0472 C   0  0  0  0  0  0  0  0  0  0  0  0
   -9.5142  -28.5888  -35.0412 C   0  0  0  0  0  0  0  0  0  0  0  0
  -13.0541  -25.4537  -35.5065 C   0  0  0  0  0  0  0  0  0  0  0  0
   -9.7775  -27.1507  -34.5812 C   0  0  1  0  0  0  0  0  0  0  0  0
  -11.9551  -26.1258  -34.8520 N   0  0  0  0  0  0  0  0  0  0  0  0
  -10.4939  -26.1431  -36.6571 O   0  0  0  0  0  0  0  0  0  0  0  0
   -8.5505  -26.4416  -34.5367 O   0  0  0  0  0  0  0  0  0  0  0  0
  -18.8262  -23.9727  -37.8720 O   0  0  0  0  0  0  0  0  0  0  0  0
  -24.2359  -21.9693  -39.5049 H   0  0  0  0  0  0  0  0  0  0  0  0
  -24.1883  -22.2167  -37.0363 H   0  0  0  0  0  0  0  0  0  0  0  0
  -22.3288  -22.7791  -40.8696 H   0  0  0  0  0  0  0  0  0  0  0  0
  -22.2423  -23.2696  -35.9318 H   0  0  0  0  0  0  0  0  0  0  0  0
  -20.3793  -23.8346  -39.7748 H   0  0  0  0  0  0  0  0  0  0  0  0
  -14.4738  -25.0669  -38.5098 H   0  0  0  0  0  0  0  0  0  0  0  0
  -16.3908  -26.3362  -34.8669 H   0  0  0  0  0  0  0  0  0  0  0  0
  -16.5749  -23.9973  -39.2405 H   0  0  0  0  0  0  0  0  0  0  0  0
  -18.4900  -25.2656  -35.6009 H   0  0  0  0  0  0  0  0  0  0  0  0
   -7.4513  -34.3801  -35.7781 H   0  0  0  0  0  0  0  0  0  0  0  0
   -6.4831  -32.9099  -35.8550 H   0  0  0  0  0  0  0  0  0  0  0  0
  -10.7643  -32.6967  -36.3259 H   0  0  0  0  0  0  0  0  0  0  0  0
   -9.9850  -34.2539  -36.0569 H   0  0  0  0  0  0  0  0  0  0  0  0
   -8.9775  -34.7982  -33.7762 H   0  0  0  0  0  0  0  0  0  0  0  0
   -9.0624  -33.6164  -32.4719 H   0  0  0  0  0  0  0  0  0  0  0  0
   -7.6121  -30.6627  -36.2585 H   0  0  0  0  0  0  0  0  0  0  0  0
   -9.3602  -30.5759  -36.4506 H   0  0  0  0  0  0  0  0  0  0  0  0
   -7.6503  -31.4992  -32.5798 H   0  0  0  0  0  0  0  0  0  0  0  0
   -6.5973  -31.2109  -33.9612 H   0  0  0  0  0  0  0  0  0  0  0  0
  -10.8974  -30.9967  -34.4336 H   0  0  0  0  0  0  0  0  0  0  0  0
  -10.2019  -31.3726  -32.8602 H   0  0  0  0  0  0  0  0  0  0  0  0
   -8.4826  -32.7292  -37.3392 H   0  0  0  0  0  0  0  0  0  0  0  0
   -6.7821  -33.6478  -33.4885 H   0  0  0  0  0  0  0  0  0  0  0  0
  -11.0596  -33.4349  -33.9591 H   0  0  0  0  0  0  0  0  0  0  0  0
  -13.5172  -26.8620  -37.0702 H   0  0  0  0  0  0  0  0  0  0  0  0
  -14.2367  -27.2675  -35.5245 H   0  0  0  0  0  0  0  0  0  0  0  0
  -19.8725  -23.8770  -36.0959 H   0  0  0  0  0  0  0  0  0  0  0  0
  -20.1292  -25.3464  -37.0508 H   0  0  0  0  0  0  0  0  0  0  0  0
   -7.6376  -29.0667  -34.0591 H   0  0  0  0  0  0  0  0  0  0  0  0
   -9.0577  -29.2679  -33.0307 H   0  0  0  0  0  0  0  0  0  0  0  0
   -8.9728  -28.5521  -35.9955 H   0  0  0  0  0  0  0  0  0  0  0  0
  -10.4628  -29.1052  -35.2297 H   0  0  0  0  0  0  0  0  0  0  0  0
  -12.6148  -24.7779  -36.2472 H   0  0  0  0  0  0  0  0  0  0  0  0
  -13.5663  -24.8472  -34.7524 H   0  0  0  0  0  0  0  0  0  0  0  0
  -10.1895  -27.1678  -33.5651 H   0  0  0  0  0  0  0  0  0  0  0  0
  -12.0914  -26.4202  -33.8895 H   0  0  0  0  0  0  0  0  0  0  0  0
   -8.7552  -25.5391  -34.2398 H   0  0  0  0  0  0  0  0  0  0  0  0
  1  2  2  0  0  0  0
  1  3  1  0  0  0  0
  2  4  1  0  0  0  0
  3  5  2  0  0  0  0
  4 11  2  0  0  0  0
  5 11  1  0  0  0  0
  6  8  1  0  0  0  0
  6 10  2  0  0  0  0
  7  9  2  0  0  0  0
  7 10  1  0  0  0  0
  8 12  2  0  0  0  0
  9 12  1  0  0  0  0
 10 24  1  0  0  0  0
 11 25  1  0  0  0  0
 12 33  1  0  0  0  0
 13 29  1  0  0  0  0
 13 30  1  0  0  0  0
 13 31  2  0  0  0  0
 14 20  1  0  0  0  0
 14 21  1  0  0  0  0
 15 20  1  0  0  0  0
 15 22  1  0  0  0  0
 16 21  1  0  0  0  0
 16 22  1  0  0  0  0
 17 20  1  0  0  0  0
 17 23  1  0  0  0  0
 18 21  1  0  0  0  0
 18 23  1  0  0  0  0
 19 22  1  0  0  0  0
 19 23  1  0  0  0  0
 23 26  1  0  0  0  0
 24 28  1  0  0  0  0
 25 33  1  0  0  0  0
 26 27  1  0  0  0  0
 27 29  1  0  0  0  0
 28 30  1  0  0  0  0
 29 32  1  0  0  0  0
  1 34  1  0  0  0  0
  2 35  1  0  0  0  0
  3 36  1  0  0  0  0
  4 37  1  0  0  0  0
  5 38  1  0  0  0  0
  6 39  1  0  0  0  0
  7 40  1  0  0  0  0
  8 41  1  0  0  0  0
  9 42  1  0  0  0  0
 14 43  1  0  0  0  0
 14 44  1  0  0  0  0
 15 45  1  0  0  0  0
 15 46  1  0  0  0  0
 16 47  1  0  0  0  0
 16 48  1  0  0  0  0
 17 49  1  0  0  0  0
 17 50  1  0  0  0  0
 18 51  1  0  0  0  0
 18 52  1  0  0  0  0
 19 53  1  0  0  0  0
 19 54  1  0  0  0  0
 20 55  1  0  0  0  0
 21 56  1  0  0  0  0
 22 57  1  0  0  0  0
 24 58  1  0  0  0  0
 24 59  1  0  0  0  0
 25 60  1  0  0  0  0
 25 61  1  0  0  0  0
 26 62  1  0  0  0  0
 26 63  1  0  0  0  0
 27 64  1  0  0  0  0
 27 65  1  0  0  0  0
 28 66  1  0  0  0  0
 28 67  1  0  0  0  0
 29 68  1  0  0  0  0
 30 69  1  0  0  0  0
 32 70  1  0  0  0  0
M  END
> <Name>
A_15

> <SourceTag>
A_15

> <Gold.Version>
5.2

> <Gold.Id.Protein>
6HGV|6HGV_protein|mol2

> <Gold.Goldscore.Fitness>
72.8097

> <Gold.Goldscore.Internal.Vdw>
-19.2862

> <Gold.Goldscore.Internal.Torsion>
-4.0963

> <Gold.Goldscore.External.Vdw>
57.0175

> <Gold.Goldscore.Internal.HBond>
0.0000

> <Gold.Goldscore.External.HBond>
0.0000

> <Gold.Goldscore.Internal.Correction>
-17.7931

> <Gold.Goldscore.Internal.Vdw.Weighted>
-19.2862

> <Gold.Goldscore.Internal.Torsion.Weighted>
-4.0963

> <Gold.Goldscore.External.Vdw.Weighted>
78.3990

> <Gold.Goldscore.Internal.HBond.Weighted>
0.0000

> <Gold.Goldscore.External.HBond.Weighted>
0.0000

> <Gold.Goldscore.Internal.Correction.Weighted>
-17.7931

> <Gold.Protein.RotatedTorsions>
[ 3781 1176 1175 1172 ] final  -15.04 input   60.00 | X-H torsion
[ 3847 1247 1246 1244 ] final    0.68 input   60.00 | X-H torsion
[ 4507 1931 1930 1928 ] final  151.34 input   60.00 | X-H torsion
[ 3677 1070 1069 1066 ] final  -99.22 input   60.00 | X-H torsion
[ 3525  925  924  922 ] final  134.96 input   59.99 | X-H torsion
[ 4531 1957 1955 1953 ] final   36.70 input   60.00 | X-H torsion

> <Gold.Protein.ActiveResidues>
 PHE267  PRO268  MET310  ASP335  TRP336  MET339  TYR343  THR360  PRO361  ILE363 
 PRO371  SER374  ILE375  ASN378  PHE381  TYR383  GLN384  PHE387  LEU408  LEU417 
 MET419  LEU428  TYR466  MET469  ASN472  ASP496  VAL498  LEU499  MET503  HIS524 
 TRP525 

> <Gold.Protein.RotatedAtoms>
   -2.0629  -30.2493  -30.0980 H   0  0  0  0  0  0  0  0  0  0  0  0  # atno 3525 bound_to 925 
  -11.7464  -23.7590  -31.4140 H   0  0  0  0  0  0  0  0  0  0  0  0  # atno 3677 bound_to 1070
  -10.7184  -37.1103  -33.8630 H   0  0  0  0  0  0  0  0  0  0  0  0  # atno 3781 bound_to 1176
  -15.7001  -28.7238  -37.0565 H   0  0  0  0  0  0  0  0  0  0  0  0  # atno 3847 bound_to 1247
  -12.6056  -23.7814  -39.8116 H   0  0  0  0  0  0  0  0  0  0  0  0  # atno 4507 bound_to 1931
   -3.0942  -33.0392  -36.6532 H   0  0  0  0  0  0  0  0  0  0  0  0  # atno 4531 bound_to 1957
   -9.3397  -36.3073  -33.5431 LP  0  0  0  0  0  0  0  0  0  0  0  0  # atno 5205 bound_to 1176
  -10.0477  -37.2138  -32.3840 LP  0  0  0  0  0  0  0  0  0  0  0  0  # atno 5206 bound_to 1176
  -15.5539  -27.2291  -37.6830 LP  0  0  0  0  0  0  0  0  0  0  0  0  # atno 5215 bound_to 1247
  -14.3069  -28.2797  -37.7705 LP  0  0  0  0  0  0  0  0  0  0  0  0  # atno 5216 bound_to 1247
  -12.9162  -25.0397  -38.8276 LP  0  0  0  0  0  0  0  0  0  0  0  0  # atno 5217 bound_to 1931
  -13.6763  -24.9187  -40.2678 LP  0  0  0  0  0  0  0  0  0  0  0  0  # atno 5218 bound_to 1931
  -11.3252  -22.3120  -30.8000 LP  0  0  0  0  0  0  0  0  0  0  0  0  # atno 5224 bound_to 1070
  -12.7839  -22.9573  -30.4503 LP  0  0  0  0  0  0  0  0  0  0  0  0  # atno 5225 bound_to 1070

$$$$
A_87|SEH_inhibs_minimized|sdf|52|dock9
  -GOLD-   4182110423D 1   1.00000     0.00000

 42 42  0  0  0  0  0  0  0  0  1 V2000
  -13.7114  -25.7045  -37.2261 C   0  0  0  0  0  0  0  0  0  0  0  0
  -11.0902  -26.6103  -33.4580 C   0  0  0  0  0  0  0  0  0  0  0  0
  -10.9951  -25.1404  -33.8583 C   0  0  0  0  0  0  0  0  0  0  0  0
  -11.9549  -27.4102  -34.4289 C   0  0  0  0  0  0  0  0  0  0  0  0
  -10.5224  -24.9802  -35.3038 C   0  0  0  0  0  0  0  0  0  0  0  0
  -11.4796  -27.2449  -35.8730 C   0  0  0  0  0  0  0  0  0  0  0  0
  -11.3760  -25.7750  -36.3011 C   0  0  0  0  0  0  0  0  0  0  0  0
  -22.0803  -23.0845  -38.4048 C   0  0  0  0  0  0  0  0  0  0  0  0
  -20.9226  -23.9896  -38.7968 C   0  0  0  0  0  0  0  0  0  0  0  0
  -19.6174  -23.6639  -38.0675 C   0  0  0  0  0  0  0  0  0  0  0  0
  -18.4677  -24.6071  -38.4307 C   0  0  0  0  0  0  0  0  0  0  0  0
  -17.2154  -24.2956  -37.6044 C   0  0  0  0  0  0  0  0  0  0  0  0
  -16.0738  -25.2684  -37.8837 C   0  0  0  0  0  0  0  0  0  0  0  0
  -12.7113  -25.1833  -36.4098 N   0  0  0  0  0  0  0  0  0  0  0  0
  -14.8837  -24.9508  -37.1431 N   0  0  0  0  0  0  0  0  0  0  0  0
  -13.5831  -26.7036  -37.9327 O   0  0  0  0  0  0  0  0  0  0  0  0
  -10.0847  -27.0464  -33.4149 H   0  0  0  0  0  0  0  0  0  0  0  0
  -11.5127  -26.6858  -32.4473 H   0  0  0  0  0  0  0  0  0  0  0  0
  -11.9722  -24.6608  -33.7359 H   0  0  0  0  0  0  0  0  0  0  0  0
  -10.2977  -24.6236  -33.1883 H   0  0  0  0  0  0  0  0  0  0  0  0
  -11.9257  -28.4717  -34.1554 H   0  0  0  0  0  0  0  0  0  0  0  0
  -12.9981  -27.0867  -34.3460 H   0  0  0  0  0  0  0  0  0  0  0  0
  -10.5326  -23.9099  -35.5741 H   0  0  0  0  0  0  0  0  0  0  0  0
   -9.4677  -25.2947  -35.3790 H   0  0  0  0  0  0  0  0  0  0  0  0
  -10.5013  -27.7402  -35.9934 H   0  0  0  0  0  0  0  0  0  0  0  0
  -12.1690  -27.7821  -36.5476 H   0  0  0  0  0  0  0  0  0  0  0  0
  -10.9365  -25.7114  -37.2933 H   0  0  0  0  0  0  0  0  0  0  0  0
  -22.3066  -23.1754  -37.3379 H   0  0  0  0  0  0  0  0  0  0  0  0
  -21.8623  -22.0353  -38.6249 H   0  0  0  0  0  0  0  0  0  0  0  0
  -22.9788  -23.3601  -38.9665 H   0  0  0  0  0  0  0  0  0  0  0  0
  -20.7682  -23.9360  -39.8807 H   0  0  0  0  0  0  0  0  0  0  0  0
  -21.1985  -25.0259  -38.5673 H   0  0  0  0  0  0  0  0  0  0  0  0
  -19.3269  -22.6276  -38.2789 H   0  0  0  0  0  0  0  0  0  0  0  0
  -19.8046  -23.7256  -36.9882 H   0  0  0  0  0  0  0  0  0  0  0  0
  -18.2336  -24.5138  -39.4965 H   0  0  0  0  0  0  0  0  0  0  0  0
  -18.7744  -25.6449  -38.2535 H   0  0  0  0  0  0  0  0  0  0  0  0
  -16.8868  -23.2690  -37.8082 H   0  0  0  0  0  0  0  0  0  0  0  0
  -17.4653  -24.3491  -36.5378 H   0  0  0  0  0  0  0  0  0  0  0  0
  -15.8141  -25.2757  -38.9471 H   0  0  0  0  0  0  0  0  0  0  0  0
  -16.3666  -26.2830  -37.5960 H   0  0  0  0  0  0  0  0  0  0  0  0
  -12.9176  -24.3528  -35.8635 H   0  0  0  0  0  0  0  0  0  0  0  0
  -14.9071  -24.1666  -36.4937 H   0  0  0  0  0  0  0  0  0  0  0  0
  1 14  1  0  0  0  0
  1 15  1  0  0  0  0
  1 16  2  0  0  0  0
  2  3  1  0  0  0  0
  2  4  1  0  0  0  0
  3  5  1  0  0  0  0
  4  6  1  0  0  0  0
  5  7  1  0  0  0  0
  6  7  1  0  0  0  0
  7 14  1  0  0  0  0
  8  9  1  0  0  0  0
  9 10  1  0  0  0  0
 10 11  1  0  0  0  0
 11 12  1  0  0  0  0
 12 13  1  0  0  0  0
 13 15  1  0  0  0  0
  2 17  1  0  0  0  0
  2 18  1  0  0  0  0
  3 19  1  0  0  0  0
  3 20  1  0  0  0  0
  4 21  1  0  0  0  0
  4 22  1  0  0  0  0
  5 23  1  0  0  0  0
  5 24  1  0  0  0  0
  6 25  1  0  0  0  0
  6 26  1  0  0  0  0
  7 27  1  0  0  0  0
  8 28  1  0  0  0  0
  8 29  1  0  0  0  0
  8 30  1  0  0  0  0
  9 31  1  0  0  0  0
  9 32  1  0  0  0  0
 10 33  1  0  0  0  0
 10 34  1  0  0  0  0
 11 35  1  0  0  0  0
 11 36  1  0  0  0  0
 12 37  1  0  0  0  0
 12 38  1  0  0  0  0
 13 39  1  0  0  0  0
 13 40  1  0  0  0  0
 14 41  1  0  0  0  0
 15 42  1  0  0  0  0
M  END
> <Name>
A_87

> <SourceTag>
A_87

> <Gold.Version>
5.2

> <Gold.Id.Protein>
6HGV|6HGV_protein|mol2

> <Gold.Goldscore.Fitness>
54.3308

> <Gold.Goldscore.Internal.Vdw>
-3.2525

> <Gold.Goldscore.Internal.Torsion>
-1.2849

> <Gold.Goldscore.External.Vdw>
35.8526

> <Gold.Goldscore.Internal.HBond>
0.0000

> <Gold.Goldscore.External.HBond>
6.2717

> <Gold.Goldscore.Internal.Correction>
-3.2992

> <Gold.Goldscore.Hbonds>
donor molecule, donor type, donor heavy atom, donor atom, acceptor molecule, acceptor atom, score
      P1  H  1247  3847       L1    16  0.07
      L1  H    14    41       P1   853  0.58
      L1  H    15    42       P1   853  0.44

> <Gold.Goldscore.Internal.Vdw.Weighted>
-3.2525

> <Gold.Goldscore.Internal.Torsion.Weighted>
-1.2849

> <Gold.Goldscore.External.Vdw.Weighted>
49.2973

> <Gold.Goldscore.Internal.HBond.Weighted>
0.0000

> <Gold.Goldscore.External.HBond.Weighted>
6.2717

> <Gold.Goldscore.Internal.Correction.Weighted>
-3.2992

> <Gold.Protein.RotatedTorsions>
[ 3781 1176 1175 1172 ] final   67.45 input   60.00 | X-H torsion
[ 3847 1247 1246 1244 ] final  136.12 input   60.00 | X-H torsion
[ 4507 1931 1930 1928 ] final  106.19 input   60.00 | X-H torsion
[ 3677 1070 1069 1066 ] final  -95.41 input   60.00 | X-H torsion
[ 3525  925  924  922 ] final  -98.54 input   59.99 | X-H torsion
[ 4531 1957 1955 1953 ] final  119.30 input   60.00 | X-H torsion

> <Gold.Protein.ActiveResidues>
 PHE267  PRO268  MET310  ASP335  TRP336  MET339  TYR343  THR360  PRO361  ILE363 
 PRO371  SER374  ILE375  ASN378  PHE381  TYR383  GLN384  PHE387  LEU408  LEU417 
 MET419  LEU428  TYR466  MET469  ASN472  ASP496  VAL498  LEU499  MET503  HIS524 
 TRP525 

> <Gold.Protein.RotatedAtoms>
   -3.3265  -29.7894  -29.1043 H   0  0  0  0  0  0  0  0  0  0  0  0  # atno 3525 bound_to 925 
  -11.8025  -23.7819  -31.3995 H   0  0  0  0  0  0  0  0  0  0  0  0  # atno 3677 bound_to 1070
  -10.5277  -37.4245  -32.6846 H   0  0  0  0  0  0  0  0  0  0  0  0  # atno 3781 bound_to 1176
  -14.3227  -28.0432  -37.8575 H   0  0  0  0  0  0  0  0  0  0  0  0  # atno 3847 bound_to 1247
  -12.4317  -24.0657  -39.1746 H   0  0  0  0  0  0  0  0  0  0  0  0  # atno 4507 bound_to 1931
   -2.3896  -34.0433  -36.8045 H   0  0  0  0  0  0  0  0  0  0  0  0  # atno 4531 bound_to 1957
  -10.3335  -36.7432  -34.1495 LP  0  0  0  0  0  0  0  0  0  0  0  0  # atno 5205 bound_to 1176
   -9.2460  -36.4616  -32.9643 LP  0  0  0  0  0  0  0  0  0  0  0  0  # atno 5206 bound_to 1176
  -15.4926  -28.8656  -37.0810 LP  0  0  0  0  0  0  0  0  0  0  0  0  # atno 5215 bound_to 1247
  -15.7553  -27.3286  -37.5658 LP  0  0  0  0  0  0  0  0  0  0  0  0  # atno 5216 bound_to 1247
  -13.3991  -25.3718  -39.2525 LP  0  0  0  0  0  0  0  0  0  0  0  0  # atno 5217 bound_to 1931
  -13.3685  -24.3002  -40.4844 LP  0  0  0  0  0  0  0  0  0  0  0  0  # atno 5218 bound_to 1931
  -11.2867  -22.3445  -30.8374 LP  0  0  0  0  0  0  0  0  0  0  0  0  # atno 5224 bound_to 1070
  -12.7659  -22.9016  -30.4275 LP  0  0  0  0  0  0  0  0  0  0  0  0  # atno 5225 bound_to 1070

$$$$
A_87|SEH_inhibs_minimized|sdf|52|dock10
  -GOLD-   4182110423D 1   1.00000     0.00000

 42 42  0  0  0  0  0  0  0  0  1 V2000
  -13.6750  -25.4666  -37.3006 C   0  0  0  0  0  0  0  0  0  0  0  0
  -11.0989  -26.7907  -33.5722 C   0  0  0  0  0  0  0  0  0  0  0  0
  -10.8825  -25.3203  -33.9204 C   0  0  0  0  0  0  0  0  0  0  0  0
  -12.0498  -27.4739  -34.5514 C   0  0  0  0  0  0  0  0  0  0  0  0
  -10.4263  -25.1464  -35.3696 C   0  0  0  0  0  0  0  0  0  0  0  0
  -11.5905  -27.2952  -35.9992 C   0  0  0  0  0  0  0  0  0  0  0  0
  -11.3662  -25.8245  -36.3753 C   0  0  0  0  0  0  0  0  0  0  0  0
  -21.3865  -24.6833  -38.9496 C   0  0  0  0  0  0  0  0  0  0  0  0
  -21.0288  -25.4793  -37.7039 C   0  0  0  0  0  0  0  0  0  0  0  0
  -19.7555  -24.9903  -37.0102 C   0  0  0  0  0  0  0  0  0  0  0  0
  -18.5014  -25.1270  -37.8773 C   0  0  0  0  0  0  0  0  0  0  0  0
  -17.2314  -24.8892  -37.0534 C   0  0  0  0  0  0  0  0  0  0  0  0
  -15.9839  -24.7703  -37.9235 C   0  0  0  0  0  0  0  0  0  0  0  0
  -12.6460  -25.1147  -36.4313 N   0  0  0  0  0  0  0  0  0  0  0  0
  -14.7815  -24.6288  -37.1488 N   0  0  0  0  0  0  0  0  0  0  0  0
  -13.6209  -26.3981  -38.1026 O   0  0  0  0  0  0  0  0  0  0  0  0
  -10.1351  -27.3142  -33.5684 H   0  0  0  0  0  0  0  0  0  0  0  0
  -11.5062  -26.8679  -32.5554 H   0  0  0  0  0  0  0  0  0  0  0  0
  -11.8109  -24.7623  -33.7579 H   0  0  0  0  0  0  0  0  0  0  0  0
  -10.1291  -24.8926  -33.2482 H   0  0  0  0  0  0  0  0  0  0  0  0
  -12.1088  -28.5436  -34.3178 H   0  0  0  0  0  0  0  0  0  0  0  0
  -13.0586  -27.0639  -34.4326 H   0  0  0  0  0  0  0  0  0  0  0  0
  -10.3475  -24.0696  -35.6002 H   0  0  0  0  0  0  0  0  0  0  0  0
   -9.4051  -25.5487  -35.4807 H   0  0  0  0  0  0  0  0  0  0  0  0
  -10.6623  -27.8690  -36.1603 H   0  0  0  0  0  0  0  0  0  0  0  0
  -12.3379  -27.7437  -36.6768 H   0  0  0  0  0  0  0  0  0  0  0  0
  -10.9426  -25.7614  -37.3745 H   0  0  0  0  0  0  0  0  0  0  0  0
  -20.6333  -24.8182  -39.7321 H   0  0  0  0  0  0  0  0  0  0  0  0
  -22.3601  -24.9803  -39.3503 H   0  0  0  0  0  0  0  0  0  0  0  0
  -21.4392  -23.6161  -38.7104 H   0  0  0  0  0  0  0  0  0  0  0  0
  -20.9285  -26.5393  -37.9645 H   0  0  0  0  0  0  0  0  0  0  0  0
  -21.8607  -25.4054  -36.9934 H   0  0  0  0  0  0  0  0  0  0  0  0
  -19.8819  -23.9446  -36.7044 H   0  0  0  0  0  0  0  0  0  0  0  0
  -19.6215  -25.5742  -36.0911 H   0  0  0  0  0  0  0  0  0  0  0  0
  -18.5405  -24.4080  -38.7025 H   0  0  0  0  0  0  0  0  0  0  0  0
  -18.4684  -26.1300  -38.3195 H   0  0  0  0  0  0  0  0  0  0  0  0
  -17.3504  -23.9817  -36.4487 H   0  0  0  0  0  0  0  0  0  0  0  0
  -17.0920  -25.7252  -36.3573 H   0  0  0  0  0  0  0  0  0  0  0  0
  -16.0527  -23.9083  -38.5947 H   0  0  0  0  0  0  0  0  0  0  0  0
  -15.8651  -25.6708  -38.5341 H   0  0  0  0  0  0  0  0  0  0  0  0
  -12.7898  -24.3279  -35.8060 H   0  0  0  0  0  0  0  0  0  0  0  0
  -14.7483  -23.9135  -36.4247 H   0  0  0  0  0  0  0  0  0  0  0  0
  1 14  1  0  0  0  0
  1 15  1  0  0  0  0
  1 16  2  0  0  0  0
  2  3  1  0  0  0  0
  2  4  1  0  0  0  0
  3  5  1  0  0  0  0
  4  6  1  0  0  0  0
  5  7  1  0  0  0  0
  6  7  1  0  0  0  0
  7 14  1  0  0  0  0
  8  9  1  0  0  0  0
  9 10  1  0  0  0  0
 10 11  1  0  0  0  0
 11 12  1  0  0  0  0
 12 13  1  0  0  0  0
 13 15  1  0  0  0  0
  2 17  1  0  0  0  0
  2 18  1  0  0  0  0
  3 19  1  0  0  0  0
  3 20  1  0  0  0  0
  4 21  1  0  0  0  0
  4 22  1  0  0  0  0
  5 23  1  0  0  0  0
  5 24  1  0  0  0  0
  6 25  1  0  0  0  0
  6 26  1  0  0  0  0
  7 27  1  0  0  0  0
  8 28  1  0  0  0  0
  8 29  1  0  0  0  0
  8 30  1  0  0  0  0
  9 31  1  0  0  0  0
  9 32  1  0  0  0  0
 10 33  1  0  0  0  0
 10 34  1  0  0  0  0
 11 35  1  0  0  0  0
 11 36  1  0  0  0  0
 12 37  1  0  0  0  0
 12 38  1  0  0  0  0
 13 39  1  0  0  0  0
 13 40  1  0  0  0  0
 14 41  1  0  0  0  0
 15 42  1  0  0  0  0
M  END
> <Name>
A_87

> <SourceTag>
A_87

> <Gold.Version>
5.2

> <Gold.Id.Protein>
6HGV|6HGV_protein|mol2

> <Gold.Goldscore.Fitness>
53.5875

> <Gold.Goldscore.Internal.Vdw>
-3.5130

> <Gold.Goldscore.Internal.Torsion>
-1.7881

> <Gold.Goldscore.External.Vdw>
36.1574

> <Gold.Goldscore.Internal.HBond>
0.0000

> <Gold.Goldscore.External.HBond>
5.8729

> <Gold.Goldscore.Internal.Correction>
-3.2992

> <Gold.Goldscore.Hbonds>
donor molecule, donor type, donor heavy atom, donor atom, acceptor molecule, acceptor atom, score
      P1  H  1247  3847       L1    16  0.17
      L1  H    14    41       P1   853  0.32
      L1  H    15    42       P1   853  0.60

> <Gold.Goldscore.Internal.Vdw.Weighted>
-3.5130

> <Gold.Goldscore.Internal.Torsion.Weighted>
-1.7881

> <Gold.Goldscore.External.Vdw.Weighted>
49.7165

> <Gold.Goldscore.Internal.HBond.Weighted>
0.0000

> <Gold.Goldscore.External.HBond.Weighted>
5.8729

> <Gold.Goldscore.Internal.Correction.Weighted>
-3.2992

> <Gold.Protein.RotatedTorsions>
[ 3781 1176 1175 1172 ] final -176.48 input   60.00 | X-H torsion
[ 3847 1247 1246 1244 ] final  154.71 input   60.00 | X-H torsion
[ 4507 1931 1930 1928 ] final  108.57 input   60.00 | X-H torsion
[ 3677 1070 1069 1066 ] final  -86.25 input   60.00 | X-H torsion
[ 3525  925  924  922 ] final   50.17 input   59.99 | X-H torsion
[ 4531 1957 1955 1953 ] final  161.65 input   60.00 | X-H torsion

> <Gold.Protein.ActiveResidues>
 PHE267  PRO268  MET310  ASP335  TRP336  MET339  TYR343  THR360  PRO361  ILE363 
 PRO371  SER374  ILE375  ASN378  PHE381  TYR383  GLN384  PHE387  LEU408  LEU417 
 MET419  LEU428  TYR466  MET469  ASN472  ASP496  VAL498  LEU499  MET503  HIS524 
 TRP525 

> <Gold.Protein.RotatedAtoms>
   -2.9521  -29.7912  -30.8680 H   0  0  0  0  0  0  0  0  0  0  0  0  # atno 3525 bound_to 925 
  -11.9393  -23.8229  -31.3556 H   0  0  0  0  0  0  0  0  0  0  0  0  # atno 3677 bound_to 1070
   -9.2600  -36.4942  -32.9101 H   0  0  0  0  0  0  0  0  0  0  0  0  # atno 3781 bound_to 1176
  -14.4159  -27.7642  -37.9276 H   0  0  0  0  0  0  0  0  0  0  0  0  # atno 3847 bound_to 1247
  -12.4315  -24.0406  -39.2044 H   0  0  0  0  0  0  0  0  0  0  0  0  # atno 4507 bound_to 1931
   -1.7315  -33.9477  -36.9280 H   0  0  0  0  0  0  0  0  0  0  0  0  # atno 4531 bound_to 1957
  -10.5743  -37.4362  -32.7280 LP  0  0  0  0  0  0  0  0  0  0  0  0  # atno 5205 bound_to 1176
  -10.2820  -36.7054  -34.1587 LP  0  0  0  0  0  0  0  0  0  0  0  0  # atno 5206 bound_to 1176
  -15.2117  -28.9559  -37.1567 LP  0  0  0  0  0  0  0  0  0  0  0  0  # atno 5215 bound_to 1247
  -15.9423  -27.5193  -37.4195 LP  0  0  0  0  0  0  0  0  0  0  0  0  # atno 5216 bound_to 1247
  -13.3763  -25.3654  -39.2213 LP  0  0  0  0  0  0  0  0  0  0  0  0  # atno 5217 bound_to 1931
  -13.3915  -24.3320  -40.4856 LP  0  0  0  0  0  0  0  0  0  0  0  0  # atno 5218 bound_to 1931
  -11.2067  -22.4342  -30.9279 LP  0  0  0  0  0  0  0  0  0  0  0  0  # atno 5224 bound_to 1070
  -12.7082  -22.7706  -30.3812 LP  0  0  0  0  0  0  0  0  0  0  0  0  # atno 5225 bound_to 1070

$$$$
A_19|SEH_inhibs_minimized|sdf|18|dock7
  -GOLD-   41821 9283D 1   1.00000     0.00000

 63 66  0  0  0  0  0  0  0  0  1 V2000
  -10.9164  -26.8528  -36.5794 C   0  0  0  0  0  0  0  0  0  0  0  0
  -10.3281  -25.0971  -35.0274 C   0  0  0  0  0  0  0  0  0  0  0  0
   -9.8503  -27.6221  -36.1133 C   0  0  0  0  0  0  0  0  0  0  0  0
   -9.2620  -25.8663  -34.5612 C   0  0  0  0  0  0  0  0  0  0  0  0
  -11.1554  -25.5904  -36.0364 C   0  0  0  0  0  0  0  0  0  0  0  0
   -9.0231  -27.1288  -35.1042 C   0  0  0  0  0  0  0  0  0  0  0  0
  -13.4781  -25.2562  -36.9723 C   0  0  0  0  0  0  0  0  0  0  0  0
  -18.4989  -23.6635  -37.7689 C   0  0  0  0  0  0  0  0  0  0  0  0
  -17.9536  -25.9797  -38.5611 C   0  0  0  0  0  0  0  0  0  0  0  0
  -17.5672  -24.0148  -40.0708 C   0  0  0  0  0  0  0  0  0  0  0  0
  -16.5475  -24.8970  -36.7898 C   0  0  0  0  0  0  0  0  0  0  0  0
  -16.1608  -22.9300  -38.3010 C   0  0  0  0  0  0  0  0  0  0  0  0
  -15.6147  -25.2494  -39.0951 C   0  0  0  0  0  0  0  0  0  0  0  0
  -17.9765  -25.0451  -37.3398 C   0  0  0  0  0  0  0  0  0  0  0  0
  -17.5883  -23.0700  -38.8571 C   0  0  0  0  0  0  0  0  0  0  0  0
  -17.0403  -25.3984  -39.6539 C   0  0  0  0  0  0  0  0  0  0  0  0
  -15.6133  -24.3089  -37.8706 C   0  0  0  0  0  0  0  0  0  0  0  0
   -5.4184  -28.4988  -27.9083 C   0  0  0  0  0  0  0  0  0  0  0  0
   -5.6921  -29.7395  -28.7315 C   0  0  0  0  0  0  0  0  0  0  0  0
   -7.8850  -29.2169  -35.1370 C   0  0  0  0  0  0  0  0  0  0  0  0
   -6.7150  -29.9057  -34.4614 C   0  0  0  0  0  0  0  0  0  0  0  0
   -5.9902  -30.4844  -30.9403 C   0  0  0  0  0  0  0  0  0  0  0  0
   -5.6494  -30.1630  -32.3826 C   0  0  0  0  0  0  0  0  0  0  0  0
  -12.2367  -24.8108  -36.5092 N   0  0  0  0  0  0  0  0  0  0  0  0
  -14.2711  -24.1687  -37.3497 N   0  0  0  0  0  0  0  0  0  0  0  0
  -13.8538  -26.4232  -37.0511 O   0  0  0  0  0  0  0  0  0  0  0  0
   -7.9825  -27.8794  -34.6497 O   0  0  0  0  0  0  0  0  0  0  0  0
   -5.5306  -29.4265  -30.1079 O   0  0  0  0  0  0  0  0  0  0  0  0
   -6.8271  -29.7368  -33.0535 O   0  0  0  0  0  0  0  0  0  0  0  0
  -11.5547  -27.2473  -37.3659 H   0  0  0  0  0  0  0  0  0  0  0  0
  -10.5051  -24.1149  -34.5965 H   0  0  0  0  0  0  0  0  0  0  0  0
   -9.6690  -28.6048  -36.5399 H   0  0  0  0  0  0  0  0  0  0  0  0
   -8.6211  -25.4770  -33.7747 H   0  0  0  0  0  0  0  0  0  0  0  0
  -19.5250  -23.7523  -38.1462 H   0  0  0  0  0  0  0  0  0  0  0  0
  -18.5350  -22.9911  -36.9030 H   0  0  0  0  0  0  0  0  0  0  0  0
  -17.5975  -26.9742  -38.2655 H   0  0  0  0  0  0  0  0  0  0  0  0
  -18.9703  -26.1088  -38.9526 H   0  0  0  0  0  0  0  0  0  0  0  0
  -18.5768  -24.1096  -40.4894 H   0  0  0  0  0  0  0  0  0  0  0  0
  -16.9332  -23.5948  -40.8612 H   0  0  0  0  0  0  0  0  0  0  0  0
  -16.5561  -24.2513  -35.9018 H   0  0  0  0  0  0  0  0  0  0  0  0
  -16.1737  -25.8739  -36.4558 H   0  0  0  0  0  0  0  0  0  0  0  0
  -15.5072  -22.4826  -39.0613 H   0  0  0  0  0  0  0  0  0  0  0  0
  -16.1591  -22.2378  -37.4487 H   0  0  0  0  0  0  0  0  0  0  0  0
  -15.2183  -26.2349  -38.8176 H   0  0  0  0  0  0  0  0  0  0  0  0
  -14.9487  -24.8590  -39.8761 H   0  0  0  0  0  0  0  0  0  0  0  0
  -18.6293  -25.4636  -36.5656 H   0  0  0  0  0  0  0  0  0  0  0  0
  -17.9658  -22.0871  -39.1598 H   0  0  0  0  0  0  0  0  0  0  0  0
  -17.0296  -26.0672  -40.5217 H   0  0  0  0  0  0  0  0  0  0  0  0
   -4.3997  -28.1373  -28.0743 H   0  0  0  0  0  0  0  0  0  0  0  0
   -6.1229  -27.7013  -28.1662 H   0  0  0  0  0  0  0  0  0  0  0  0
   -5.5500  -28.7069  -26.8413 H   0  0  0  0  0  0  0  0  0  0  0  0
   -6.7152  -30.0908  -28.5676 H   0  0  0  0  0  0  0  0  0  0  0  0
   -4.9923  -30.5378  -28.4671 H   0  0  0  0  0  0  0  0  0  0  0  0
   -8.8261  -29.7297  -34.9155 H   0  0  0  0  0  0  0  0  0  0  0  0
   -7.7326  -29.1770  -36.2195 H   0  0  0  0  0  0  0  0  0  0  0  0
   -5.7628  -29.4716  -34.7820 H   0  0  0  0  0  0  0  0  0  0  0  0
   -6.7237  -30.9775  -34.6797 H   0  0  0  0  0  0  0  0  0  0  0  0
   -5.5029  -31.4092  -30.6165 H   0  0  0  0  0  0  0  0  0  0  0  0
   -7.0731  -30.5744  -30.8137 H   0  0  0  0  0  0  0  0  0  0  0  0
   -5.2611  -31.0445  -32.9024 H   0  0  0  0  0  0  0  0  0  0  0  0
   -4.9153  -29.3534  -32.4314 H   0  0  0  0  0  0  0  0  0  0  0  0
  -12.0936  -23.8039  -36.5127 H   0  0  0  0  0  0  0  0  0  0  0  0
  -13.8863  -23.2351  -37.2534 H   0  0  0  0  0  0  0  0  0  0  0  0
  1  3  1  0  0  0  0
  1  5  2  0  0  0  0
  2  4  2  0  0  0  0
  2  5  1  0  0  0  0
  3  6  2  0  0  0  0
  4  6  1  0  0  0  0
  5 24  1  0  0  0  0
  6 27  1  0  0  0  0
  7 24  1  0  0  0  0
  7 25  1  0  0  0  0
  7 26  2  0  0  0  0
  8 14  1  0  0  0  0
  8 15  1  0  0  0  0
  9 14  1  0  0  0  0
  9 16  1  0  0  0  0
 10 15  1  0  0  0  0
 10 16  1  0  0  0  0
 11 14  1  0  0  0  0
 11 17  1  0  0  0  0
 12 15  1  0  0  0  0
 12 17  1  0  0  0  0
 13 16  1  0  0  0  0
 13 17  1  0  0  0  0
 17 25  1  0  0  0  0
 18 19  1  0  0  0  0
 19 28  1  0  0  0  0
 20 21  1  0  0  0  0
 20 27  1  0  0  0  0
 21 29  1  0  0  0  0
 22 23  1  0  0  0  0
 22 28  1  0  0  0  0
 23 29  1  0  0  0  0
  1 30  1  0  0  0  0
  2 31  1  0  0  0  0
  3 32  1  0  0  0  0
  4 33  1  0  0  0  0
  8 34  1  0  0  0  0
  8 35  1  0  0  0  0
  9 36  1  0  0  0  0
  9 37  1  0  0  0  0
 10 38  1  0  0  0  0
 10 39  1  0  0  0  0
 11 40  1  0  0  0  0
 11 41  1  0  0  0  0
 12 42  1  0  0  0  0
 12 43  1  0  0  0  0
 13 44  1  0  0  0  0
 13 45  1  0  0  0  0
 14 46  1  0  0  0  0
 15 47  1  0  0  0  0
 16 48  1  0  0  0  0
 18 49  1  0  0  0  0
 18 50  1  0  0  0  0
 18 51  1  0  0  0  0
 19 52  1  0  0  0  0
 19 53  1  0  0  0  0
 20 54  1  0  0  0  0
 20 55  1  0  0  0  0
 21 56  1  0  0  0  0
 21 57  1  0  0  0  0
 22 58  1  0  0  0  0
 22 59  1  0  0  0  0
 23 60  1  0  0  0  0
 23 61  1  0  0  0  0
 24 62  1  0  0  0  0
 25 63  1  0  0  0  0
M  END
> <Name>
A_19

> <SourceTag>
A_19

> <Gold.Version>
5.2

> <Gold.Id.Protein>
6HGV|6HGV_protein|mol2

> <Gold.Goldscore.Fitness>
71.8358

> <Gold.Goldscore.Internal.Vdw>
-15.7268

> <Gold.Goldscore.Internal.Torsion>
-6.7370

> <Gold.Goldscore.External.Vdw>
53.7506

> <Gold.Goldscore.Internal.HBond>
0.0000

> <Gold.Goldscore.External.HBond>
5.9592

> <Gold.Goldscore.Internal.Correction>
-14.4333

> <Gold.Goldscore.Hbonds>
donor molecule, donor type, donor heavy atom, donor atom, acceptor molecule, acceptor atom, score
      P1  H   925  3525       L1    28  1.00
      L1  H    24    62       P1   854  0.33
      L1  H    25    63       P1   854  0.33

> <Gold.Goldscore.Internal.Vdw.Weighted>
-15.7268

> <Gold.Goldscore.Internal.Torsion.Weighted>
-6.7370

> <Gold.Goldscore.External.Vdw.Weighted>
73.9071

> <Gold.Goldscore.Internal.HBond.Weighted>
0.0000

> <Gold.Goldscore.External.HBond.Weighted>
5.9592

> <Gold.Goldscore.Internal.Correction.Weighted>
-14.4333

> <Gold.Protein.RotatedTorsions>
[ 3781 1176 1175 1172 ] final -136.28 input   60.00 | X-H torsion
[ 3847 1247 1246 1244 ] final  -30.83 input   60.00 | X-H torsion
[ 4507 1931 1930 1928 ] final  103.55 input   60.00 | X-H torsion
[ 3677 1070 1069 1066 ] final -133.94 input   60.00 | X-H torsion
[ 3525  925  924  922 ] final  -27.62 input   59.99 | X-H torsion
[ 4531 1957 1955 1953 ] final   72.62 input   60.00 | X-H torsion

> <Gold.Protein.ActiveResidues>
 PHE267  PRO268  MET310  ASP335  TRP336  MET339  TYR343  THR360  PRO361  ILE363 
 PRO371  SER374  ILE375  ASN378  PHE381  TYR383  GLN384  PHE387  LEU408  LEU417 
 MET419  LEU428  TYR466  MET469  ASN472  ASP496  VAL498  LEU499  MET503  HIS524 
 TRP525 

> <Gold.Protein.RotatedAtoms>
   -3.7604  -29.5127  -30.0609 H   0  0  0  0  0  0  0  0  0  0  0  0  # atno 3525 bound_to 925 
  -11.3064  -23.4153  -31.4346 H   0  0  0  0  0  0  0  0  0  0  0  0  # atno 3677 bound_to 1070
   -9.3351  -36.3146  -33.5234 H   0  0  0  0  0  0  0  0  0  0  0  0  # atno 3781 bound_to 1176
  -15.9983  -28.3140  -37.0962 H   0  0  0  0  0  0  0  0  0  0  0  0  # atno 3847 bound_to 1247
  -12.4331  -24.0945  -39.1426 H   0  0  0  0  0  0  0  0  0  0  0  0  # atno 4507 bound_to 1931
   -2.9750  -33.6032  -36.6856 H   0  0  0  0  0  0  0  0  0  0  0  0  # atno 4531 bound_to 1957
  -10.0651  -37.2238  -32.3882 LP  0  0  0  0  0  0  0  0  0  0  0  0  # atno 5205 bound_to 1176
  -10.7155  -37.0987  -33.8809 LP  0  0  0  0  0  0  0  0  0  0  0  0  # atno 5206 bound_to 1176
  -15.0787  -27.2192  -37.8732 LP  0  0  0  0  0  0  0  0  0  0  0  0  # atno 5215 bound_to 1247
  -14.4817  -28.7022  -37.5403 LP  0  0  0  0  0  0  0  0  0  0  0  0  # atno 5216 bound_to 1247
  -13.4237  -25.3773  -39.2879 LP  0  0  0  0  0  0  0  0  0  0  0  0  # atno 5217 bound_to 1931
  -13.3424  -24.2657  -40.4813 LP  0  0  0  0  0  0  0  0  0  0  0  0  # atno 5218 bound_to 1931
  -11.7781  -22.1714  -30.4973 LP  0  0  0  0  0  0  0  0  0  0  0  0  # atno 5224 bound_to 1070
  -12.7741  -23.4440  -30.7323 LP  0  0  0  0  0  0  0  0  0  0  0  0  # atno 5225 bound_to 1070

$$$$
A_31|SEH_inhibs_minimized|sdf|25|dock5
  -GOLD-   41821 9423D 1   1.00000     0.00000

 32 34  0  0  0  0  0  0  0  0  1 V2000
  -10.3641  -25.0863  -34.1806 C   0  0  0  0  0  0  0  0  0  0  0  0
  -11.6680  -24.8909  -34.6576 C   0  0  0  0  0  0  0  0  0  0  0  0
   -9.6335  -26.2294  -34.5212 C   0  0  0  0  0  0  0  0  0  0  0  0
  -17.3990  -25.2170  -38.4225 C   0  0  0  0  0  0  0  0  0  0  0  0
  -18.2007  -25.2073  -36.1434 C   0  0  0  0  0  0  0  0  0  0  0  0
  -16.0832  -25.2143  -37.9598 C   0  0  0  0  0  0  0  0  0  0  0  0
  -16.8849  -25.2046  -35.6806 C   0  0  0  0  0  0  0  0  0  0  0  0
  -12.2234  -25.8746  -35.4890 C   0  0  0  0  0  0  0  0  0  0  0  0
  -18.4578  -25.2136  -37.5144 C   0  0  0  0  0  0  0  0  0  0  0  0
  -10.1746  -27.2183  -35.3492 C   0  0  0  0  0  0  0  0  0  0  0  0
  -15.8262  -25.2081  -36.5888 C   0  0  0  0  0  0  0  0  0  0  0  0
  -11.4701  -26.9918  -35.8046 C   0  0  0  0  0  0  0  0  0  0  0  0
  -13.4376  -26.0922  -36.1685 C   0  0  0  0  0  0  0  0  0  0  0  0
  -19.8648  -25.2161  -38.0088 C   0  0  0  0  0  0  0  0  0  0  0  0
   -9.3824  -28.4288  -35.7016 C   0  0  0  0  0  0  0  0  0  0  0  0
  -13.4420  -27.2429  -36.8480 N   0  0  0  0  0  0  0  0  0  0  0  0
  -14.4637  -25.2046  -36.1093 N   0  0  0  0  0  0  0  0  0  0  0  0
  -12.1948  -27.8097  -36.6161 O   0  0  0  0  0  0  0  0  0  0  0  0
  -20.6962  -24.4643  -37.2302 F   0  0  0  0  0  0  0  0  0  0  0  0
  -20.0012  -24.7207  -39.2744 F   0  0  0  0  0  0  0  0  0  0  0  0
  -20.4278  -26.4598  -38.0508 F   0  0  0  0  0  0  0  0  0  0  0  0
   -8.0424  -28.2596  -35.4985 F   0  0  0  0  0  0  0  0  0  0  0  0
   -9.7228  -29.5382  -34.9794 F   0  0  0  0  0  0  0  0  0  0  0  0
   -9.5076  -28.8059  -37.0095 F   0  0  0  0  0  0  0  0  0  0  0  0
   -9.9145  -24.3361  -33.5350 H   0  0  0  0  0  0  0  0  0  0  0  0
  -12.2227  -23.9987  -34.3847 H   0  0  0  0  0  0  0  0  0  0  0  0
   -8.6245  -26.3432  -34.1300 H   0  0  0  0  0  0  0  0  0  0  0  0
  -17.5894  -25.2201  -39.4924 H   0  0  0  0  0  0  0  0  0  0  0  0
  -19.0192  -25.2034  -35.4289 H   0  0  0  0  0  0  0  0  0  0  0  0
  -15.2653  -25.2178  -38.6758 H   0  0  0  0  0  0  0  0  0  0  0  0
  -16.6962  -25.1998  -34.6101 H   0  0  0  0  0  0  0  0  0  0  0  0
  -14.2701  -24.3106  -35.6187 H   0  0  0  0  0  0  0  0  0  0  0  0
  1  2  1  0  0  0  0
  1  3  2  0  0  0  0
  2  8  2  0  0  0  0
  3 10  1  0  0  0  0
  4  6  1  0  0  0  0
  4  9  2  0  0  0  0
  5  7  2  0  0  0  0
  5  9  1  0  0  0  0
  6 11  2  0  0  0  0
  7 11  1  0  0  0  0
  8 12  1  0  0  0  0
  8 13  1  0  0  0  0
  9 14  1  0  0  0  0
 10 12  2  0  0  0  0
 10 15  1  0  0  0  0
 11 17  1  0  0  0  0
 12 18  1  0  0  0  0
 13 16  2  0  0  0  0
 13 17  1  0  0  0  0
 14 19  1  0  0  0  0
 14 20  1  0  0  0  0
 14 21  1  0  0  0  0
 15 22  1  0  0  0  0
 15 23  1  0  0  0  0
 15 24  1  0  0  0  0
 16 18  1  0  0  0  0
  1 25  1  0  0  0  0
  2 26  1  0  0  0  0
  3 27  1  0  0  0  0
  4 28  1  0  0  0  0
  5 29  1  0  0  0  0
  6 30  1  0  0  0  0
  7 31  1  0  0  0  0
 17 32  1  0  0  0  0
M  END
> <Name>
A_31

> <SourceTag>
A_31

> <Gold.Version>
5.2

> <Gold.Id.Protein>
6HGV|6HGV_protein|mol2

> <Gold.Goldscore.Fitness>
56.9855

> <Gold.Goldscore.Internal.Vdw>
1.3584

> <Gold.Goldscore.Internal.Torsion>
-6.5951

> <Gold.Goldscore.External.Vdw>
40.6672

> <Gold.Goldscore.Internal.HBond>
0.0000

> <Gold.Goldscore.External.HBond>
4.9421

> <Gold.Goldscore.Internal.Correction>
-1.3628

> <Gold.Goldscore.Hbonds>
donor molecule, donor type, donor heavy atom, donor atom, acceptor molecule, acceptor atom, score
      L1  H    17    32       P1   853  0.82

> <Gold.Goldscore.Internal.Vdw.Weighted>
1.3584

> <Gold.Goldscore.Internal.Torsion.Weighted>
-6.5951

> <Gold.Goldscore.External.Vdw.Weighted>
55.9174

> <Gold.Goldscore.Internal.HBond.Weighted>
0.0000

> <Gold.Goldscore.External.HBond.Weighted>
4.9421

> <Gold.Goldscore.Internal.Correction.Weighted>
-1.3628

> <Gold.Protein.RotatedTorsions>
[ 3781 1176 1175 1172 ] final   95.19 input   60.00 | X-H torsion
[ 3847 1247 1246 1244 ] final  -53.76 input   60.00 | X-H torsion
[ 4507 1931 1930 1928 ] final   48.33 input   60.00 | X-H torsion
[ 3677 1070 1069 1066 ] final  -98.71 input   60.00 | X-H torsion
[ 3525  925  924  922 ] final   55.46 input   59.99 | X-H torsion
[ 4531 1957 1955 1953 ] final -138.53 input   60.00 | X-H torsion

> <Gold.Protein.ActiveResidues>
 PHE267  PRO268  MET310  ASP335  TRP336  MET339  TYR343  THR360  PRO361  ILE363 
 PRO371  SER374  ILE375  ASN378  PHE381  TYR383  GLN384  PHE387  LEU408  LEU417 
 MET419  LEU428  TYR466  MET469  ASN472  ASP496  VAL498  LEU499  MET503  HIS524 
 TRP525 

> <Gold.Protein.RotatedAtoms>
   -2.8729  -29.8254  -30.8710 H   0  0  0  0  0  0  0  0  0  0  0  0  # atno 3525 bound_to 925 
  -11.7538  -23.7622  -31.4122 H   0  0  0  0  0  0  0  0  0  0  0  0  # atno 3677 bound_to 1070
  -10.1810  -37.2866  -32.4350 H   0  0  0  0  0  0  0  0  0  0  0  0  # atno 3781 bound_to 1176
  -16.0677  -27.9643  -37.2028 H   0  0  0  0  0  0  0  0  0  0  0  0  # atno 3847 bound_to 1247
  -12.7423  -24.8260  -38.7929 H   0  0  0  0  0  0  0  0  0  0  0  0  # atno 4507 bound_to 1931
   -1.2594  -33.1457  -37.0039 H   0  0  0  0  0  0  0  0  0  0  0  0  # atno 4531 bound_to 1957
  -10.6452  -37.0179  -33.9713 LP  0  0  0  0  0  0  0  0  0  0  0  0  # atno 5205 bound_to 1176
   -9.2836  -36.3257  -33.3939 LP  0  0  0  0  0  0  0  0  0  0  0  0  # atno 5206 bound_to 1176
  -14.7451  -27.3742  -37.9449 LP  0  0  0  0  0  0  0  0  0  0  0  0  # atno 5215 bound_to 1247
  -14.7454  -28.8994  -37.3613 LP  0  0  0  0  0  0  0  0  0  0  0  0  # atno 5216 bound_to 1247
  -13.7023  -25.1172  -40.0742 LP  0  0  0  0  0  0  0  0  0  0  0  0  # atno 5217 bound_to 1931
  -12.7524  -23.7892  -40.0471 LP  0  0  0  0  0  0  0  0  0  0  0  0  # atno 5218 bound_to 1931
  -11.3199  -22.3161  -30.8050 LP  0  0  0  0  0  0  0  0  0  0  0  0  # atno 5224 bound_to 1070
  -12.7818  -22.9499  -30.4472 LP  0  0  0  0  0  0  0  0  0  0  0  0  # atno 5225 bound_to 1070

$$$$
A_21|SEH_inhibs_minimized|sdf|20|dock8
  -GOLD-   41821 9343D 1   1.00000     0.00000

 53 56  0  0  0  0  0  0  0  0  1 V2000
   -7.7135  -33.1626  -34.2364 C   0  0  0  0  0  0  0  0  0  0  0  0
  -14.4278  -26.8504  -35.6800 C   0  0  0  0  0  0  0  0  0  0  0  0
  -15.3285  -26.2188  -36.5362 C   0  0  0  0  0  0  0  0  0  0  0  0
   -6.8693  -34.1992  -33.8382 C   0  0  0  0  0  0  0  0  0  0  0  0
  -13.6647  -24.5460  -37.0477 C   0  0  0  0  0  0  0  0  0  0  0  0
   -4.9590  -32.9445  -34.6213 C   0  0  0  0  0  0  0  0  0  0  0  0
  -12.7560  -25.1667  -36.1802 C   0  0  0  0  0  0  0  0  0  0  0  0
   -7.1805  -32.0170  -34.8275 C   0  0  0  0  0  0  0  0  0  0  0  0
  -13.1402  -26.3340  -35.5107 C   0  0  0  0  0  0  0  0  0  0  0  0
  -14.9461  -25.0690  -37.2229 C   0  0  0  0  0  0  0  0  0  0  0  0
   -5.4920  -34.0901  -34.0306 C   0  0  0  0  0  0  0  0  0  0  0  0
   -5.8031  -31.9079  -35.0199 C   0  0  0  0  0  0  0  0  0  0  0  0
   -8.7270  -30.2628  -34.0297 C   0  0  0  0  0  0  0  0  0  0  0  0
  -11.3809  -24.5941  -36.0061 C   0  0  0  0  0  0  0  0  0  0  0  0
  -10.7322  -25.1573  -34.7494 C   0  0  0  0  0  0  0  0  0  0  0  0
  -10.2031  -27.4458  -35.7855 C   0  0  0  0  0  0  0  0  0  0  0  0
  -10.3612  -27.1610  -33.2914 C   0  0  0  0  0  0  0  0  0  0  0  0
  -10.2569  -28.9628  -35.5887 C   0  0  0  0  0  0  0  0  0  0  0  0
  -10.4104  -28.6823  -33.1450 C   0  0  0  0  0  0  0  0  0  0  0  0
  -10.9260  -26.6813  -34.6498 C   0  0  0  0  0  0  0  0  0  0  0  0
  -17.6298  -24.3664  -37.4487 C   0  0  0  0  0  0  0  0  0  0  0  0
   -8.1200  -30.9272  -35.2398 C   0  0  0  0  0  0  0  0  0  0  0  0
   -9.7407  -29.3355  -34.2684 N   0  0  0  0  0  0  0  0  0  0  0  0
   -8.3100  -30.5592  -32.9071 O   0  0  0  0  0  0  0  0  0  0  0  0
  -15.7182  -22.8711  -38.4025 O   0  0  0  0  0  0  0  0  0  0  0  0
  -16.1771  -25.0872  -39.5086 O   0  0  0  0  0  0  0  0  0  0  0  0
  -12.3269  -27.0248  -34.6524 O   0  0  0  0  0  0  0  0  0  0  0  0
  -16.0709  -24.2809  -38.3007 S   0  0  0  0  0  0  0  0  0  0  0  0
   -4.4515  -35.3695  -33.5390 Cl  0  0  0  0  0  0  0  0  0  0  0  0
   -5.1075  -30.5056  -35.7474 Cl  0  0  0  0  0  0  0  0  0  0  0  0
   -8.7852  -33.2577  -34.0818 H   0  0  0  0  0  0  0  0  0  0  0  0
  -14.7335  -27.7497  -35.1513 H   0  0  0  0  0  0  0  0  0  0  0  0
  -16.3249  -26.6337  -36.6622 H   0  0  0  0  0  0  0  0  0  0  0  0
   -7.2989  -35.0859  -33.3787 H   0  0  0  0  0  0  0  0  0  0  0  0
  -13.3689  -23.6471  -37.5841 H   0  0  0  0  0  0  0  0  0  0  0  0
   -3.8845  -32.8605  -34.7701 H   0  0  0  0  0  0  0  0  0  0  0  0
  -10.7777  -24.8342  -36.8893 H   0  0  0  0  0  0  0  0  0  0  0  0
  -11.4303  -23.5019  -35.9247 H   0  0  0  0  0  0  0  0  0  0  0  0
   -9.6696  -24.8884  -34.7268 H   0  0  0  0  0  0  0  0  0  0  0  0
  -11.2032  -24.6798  -33.8788 H   0  0  0  0  0  0  0  0  0  0  0  0
   -9.1533  -27.1282  -35.8272 H   0  0  0  0  0  0  0  0  0  0  0  0
  -10.6516  -27.2220  -36.7596 H   0  0  0  0  0  0  0  0  0  0  0  0
  -10.9348  -26.7186  -32.4677 H   0  0  0  0  0  0  0  0  0  0  0  0
   -9.3205  -26.8278  -33.1865 H   0  0  0  0  0  0  0  0  0  0  0  0
  -11.2901  -29.3244  -35.6479 H   0  0  0  0  0  0  0  0  0  0  0  0
   -9.7034  -29.4477  -36.3948 H   0  0  0  0  0  0  0  0  0  0  0  0
   -9.9510  -28.9733  -32.1950 H   0  0  0  0  0  0  0  0  0  0  0  0
  -11.4464  -29.0401  -33.1261 H   0  0  0  0  0  0  0  0  0  0  0  0
  -18.3081  -23.6392  -37.8979 H   0  0  0  0  0  0  0  0  0  0  0  0
  -18.0264  -25.3770  -37.5571 H   0  0  0  0  0  0  0  0  0  0  0  0
  -17.4606  -24.1325  -36.3967 H   0  0  0  0  0  0  0  0  0  0  0  0
   -7.6037  -30.1599  -35.8167 H   0  0  0  0  0  0  0  0  0  0  0  0
   -8.9351  -31.3193  -35.8479 H   0  0  0  0  0  0  0  0  0  0  0  0
  1  4  1  0  0  0  0
  1  8  2  0  0  0  0
  2  3  1  0  0  0  0
  2  9  2  0  0  0  0
  3 10  2  0  0  0  0
  4 11  2  0  0  0  0
  5  7  2  0  0  0  0
  5 10  1  0  0  0  0
  6 11  1  0  0  0  0
  6 12  2  0  0  0  0
  7  9  1  0  0  0  0
  7 14  1  0  0  0  0
  8 12  1  0  0  0  0
  8 22  1  0  0  0  0
  9 27  1  0  0  0  0
 10 28  1  0  0  0  0
 11 29  1  0  0  0  0
 12 30  1  0  0  0  0
 13 22  1  0  0  0  0
 13 23  1  0  0  0  0
 13 24  2  0  0  0  0
 14 15  1  0  0  0  0
 15 20  1  0  0  0  0
 16 18  1  0  0  0  0
 16 20  1  0  0  0  0
 17 19  1  0  0  0  0
 17 20  1  0  0  0  0
 18 23  1  0  0  0  0
 19 23  1  0  0  0  0
 20 27  1  0  0  0  0
 21 28  1  0  0  0  0
 25 28  2  0  0  0  0
 26 28  2  0  0  0  0
  1 31  1  0  0  0  0
  2 32  1  0  0  0  0
  3 33  1  0  0  0  0
  4 34  1  0  0  0  0
  5 35  1  0  0  0  0
  6 36  1  0  0  0  0
 14 37  1  0  0  0  0
 14 38  1  0  0  0  0
 15 39  1  0  0  0  0
 15 40  1  0  0  0  0
 16 41  1  0  0  0  0
 16 42  1  0  0  0  0
 17 43  1  0  0  0  0
 17 44  1  0  0  0  0
 18 45  1  0  0  0  0
 18 46  1  0  0  0  0
 19 47  1  0  0  0  0
 19 48  1  0  0  0  0
 21 49  1  0  0  0  0
 21 50  1  0  0  0  0
 21 51  1  0  0  0  0
 22 52  1  0  0  0  0
 22 53  1  0  0  0  0
M  END
> <Name>
A_21

> <SourceTag>
A_21

> <Gold.Version>
5.2

> <Gold.Id.Protein>
6HGV|6HGV_protein|mol2

> <Gold.Goldscore.Fitness>
63.5672

> <Gold.Goldscore.Internal.Vdw>
-4.0095

> <Gold.Goldscore.Internal.Torsion>
-4.7887

> <Gold.Goldscore.External.Vdw>
48.2197

> <Gold.Goldscore.Internal.HBond>
0.0000

> <Gold.Goldscore.External.HBond>
0.2164

> <Gold.Goldscore.Internal.Correction>
-5.8467

> <Gold.Goldscore.Hbonds>
donor molecule, donor type, donor heavy atom, donor atom, acceptor molecule, acceptor atom, score
      P1  H  1931  4507       L1    26  0.11

> <Gold.Goldscore.Internal.Vdw.Weighted>
-4.0095

> <Gold.Goldscore.Internal.Torsion.Weighted>
-4.7887

> <Gold.Goldscore.External.Vdw.Weighted>
66.3021

> <Gold.Goldscore.Internal.HBond.Weighted>
0.0000

> <Gold.Goldscore.External.HBond.Weighted>
0.2164

> <Gold.Goldscore.Internal.Correction.Weighted>
-5.8467

> <Gold.Protein.RotatedTorsions>
[ 3781 1176 1175 1172 ] final -123.34 input   60.00 | X-H torsion
[ 3847 1247 1246 1244 ] final   93.97 input   60.00 | X-H torsion
[ 4507 1931 1930 1928 ] final  -65.64 input   60.00 | X-H torsion
[ 3677 1070 1069 1066 ] final -109.79 input   60.00 | X-H torsion
[ 3525  925  924  922 ] final  -34.85 input   59.99 | X-H torsion
[ 4531 1957 1955 1953 ] final   95.76 input   60.00 | X-H torsion

> <Gold.Protein.ActiveResidues>
 PHE267  PRO268  MET310  ASP335  TRP336  MET339  TYR343  THR360  PRO361  ILE363 
 PRO371  SER374  ILE375  ASN378  PHE381  TYR383  GLN384  PHE387  LEU408  LEU417 
 MET419  LEU428  TYR466  MET469  ASN472  ASP496  VAL498  LEU499  MET503  HIS524 
 TRP525 

> <Gold.Protein.RotatedAtoms>
   -3.7717  -29.5184  -29.9435 H   0  0  0  0  0  0  0  0  0  0  0  0  # atno 3525 bound_to 925 
  -11.5964  -23.6784  -31.4419 H   0  0  0  0  0  0  0  0  0  0  0  0  # atno 3677 bound_to 1070
   -9.4364  -36.3129  -33.7085 H   0  0  0  0  0  0  0  0  0  0  0  0  # atno 3781 bound_to 1176
  -14.4455  -28.6439  -37.5795 H   0  0  0  0  0  0  0  0  0  0  0  0  # atno 3847 bound_to 1247
  -13.6919  -25.1741  -39.9938 H   0  0  0  0  0  0  0  0  0  0  0  0  # atno 4507 bound_to 1931
   -2.7297  -33.8830  -36.7371 H   0  0  0  0  0  0  0  0  0  0  0  0  # atno 4531 bound_to 1957
   -9.8854  -37.1128  -32.3644 LP  0  0  0  0  0  0  0  0  0  0  0  0  # atno 5205 bound_to 1176
  -10.7931  -37.2113  -33.7183 LP  0  0  0  0  0  0  0  0  0  0  0  0  # atno 5206 bound_to 1176
  -15.9715  -28.3857  -37.0766 LP  0  0  0  0  0  0  0  0  0  0  0  0  # atno 5215 bound_to 1247
  -15.1527  -27.2035  -37.8502 LP  0  0  0  0  0  0  0  0  0  0  0  0  # atno 5216 bound_to 1247
  -12.8124  -23.8112  -40.1229 LP  0  0  0  0  0  0  0  0  0  0  0  0  # atno 5217 bound_to 1931
  -12.6860  -24.7446  -38.7890 LP  0  0  0  0  0  0  0  0  0  0  0  0  # atno 5218 bound_to 1931
  -11.4458  -22.2385  -30.6989 LP  0  0  0  0  0  0  0  0  0  0  0  0  # atno 5224 bound_to 1070
  -12.8144  -23.1119  -30.5234 LP  0  0  0  0  0  0  0  0  0  0  0  0  # atno 5225 bound_to 1070

$$$$
A_38|SEH_inhibs_minimized|sdf|28|dock3
  -GOLD-   41821 9483D 1   1.00000     0.00000

 52 54  0  0  0  0  0  0  0  0  1 V2000
  -16.0823  -26.0298  -37.0223 C   0  0  0  0  0  0  0  0  0  0  0  0
  -14.6695  -24.2946  -37.9336 C   0  0  0  0  0  0  0  0  0  0  0  0
  -10.5341  -32.1676  -34.1325 C   0  0  0  0  0  0  0  0  0  0  0  0
  -15.1116  -26.3162  -36.0626 C   0  0  0  0  0  0  0  0  0  0  0  0
  -13.6987  -24.5809  -36.9737 C   0  0  0  0  0  0  0  0  0  0  0  0
  -11.4773  -33.0856  -33.6706 C   0  0  0  0  0  0  0  0  0  0  0  0
  -10.3509  -34.8501  -34.8769 C   0  0  0  0  0  0  0  0  0  0  0  0
  -15.8613  -25.0189  -37.9579 C   0  0  0  0  0  0  0  0  0  0  0  0
   -9.4995  -32.5908  -34.9671 C   0  0  0  0  0  0  0  0  0  0  0  0
  -13.9199  -25.5917  -36.0382 C   0  0  0  0  0  0  0  0  0  0  0  0
  -11.3856  -34.4269  -34.0427 C   0  0  0  0  0  0  0  0  0  0  0  0
   -9.4078  -33.9321  -35.3392 C   0  0  0  0  0  0  0  0  0  0  0  0
  -16.8746  -24.7188  -38.9568 C   0  0  0  0  0  0  0  0  0  0  0  0
   -8.6970  -29.1076  -35.2213 C   0  0  0  0  0  0  0  0  0  0  0  0
  -10.7145  -26.2976  -34.3759 C   0  0  0  0  0  0  0  0  0  0  0  0
  -11.6686  -27.4226  -36.4221 C   0  0  0  0  0  0  0  0  0  0  0  0
   -9.3224  -26.7440  -34.8142 C   0  0  0  0  0  0  0  0  0  0  0  0
  -10.2532  -27.8307  -36.8183 C   0  0  0  0  0  0  0  0  0  0  0  0
  -11.6548  -26.1485  -35.5733 C   0  0  0  0  0  0  0  0  0  0  0  0
  -18.1296  -22.9090  -40.1545 C   0  0  0  0  0  0  0  0  0  0  0  0
   -8.5043  -31.5717  -35.4416 C   0  0  0  0  0  0  0  0  0  0  0  0
   -9.4080  -27.9647  -35.6220 N   0  0  0  0  0  0  0  0  0  0  0  0
  -17.1371  -23.3673  -39.2093 N   0  0  0  0  0  0  0  0  0  0  0  0
   -9.1333  -30.3100  -35.7637 N   0  0  0  0  0  0  0  0  0  0  0  0
  -17.4834  -25.6370  -39.5342 O   0  0  0  0  0  0  0  0  0  0  0  0
   -7.7456  -29.0606  -34.4341 O   0  0  0  0  0  0  0  0  0  0  0  0
  -12.9661  -25.8729  -35.0956 O   0  0  0  0  0  0  0  0  0  0  0  0
  -12.5498  -35.5586  -33.4724 Cl  0  0  0  0  0  0  0  0  0  0  0  0
   -8.1413  -34.4924  -36.3698 Cl  0  0  0  0  0  0  0  0  0  0  0  0
  -17.0077  -26.6001  -37.0318 H   0  0  0  0  0  0  0  0  0  0  0  0
  -14.4874  -23.5045  -38.6575 H   0  0  0  0  0  0  0  0  0  0  0  0
  -10.6146  -31.1249  -33.8365 H   0  0  0  0  0  0  0  0  0  0  0  0
  -15.2901  -27.1052  -35.3368 H   0  0  0  0  0  0  0  0  0  0  0  0
  -12.7732  -24.0119  -36.9599 H   0  0  0  0  0  0  0  0  0  0  0  0
  -12.2781  -32.7415  -33.0209 H   0  0  0  0  0  0  0  0  0  0  0  0
  -10.2803  -35.8967  -35.1657 H   0  0  0  0  0  0  0  0  0  0  0  0
  -11.1348  -27.0282  -33.6720 H   0  0  0  0  0  0  0  0  0  0  0  0
  -10.6550  -25.3504  -33.8270 H   0  0  0  0  0  0  0  0  0  0  0  0
  -12.2836  -27.2679  -37.3163 H   0  0  0  0  0  0  0  0  0  0  0  0
  -12.1492  -28.2335  -35.8591 H   0  0  0  0  0  0  0  0  0  0  0  0
   -8.8446  -25.9725  -35.4293 H   0  0  0  0  0  0  0  0  0  0  0  0
   -8.6925  -26.8981  -33.9327 H   0  0  0  0  0  0  0  0  0  0  0  0
  -10.2803  -28.7358  -37.4245 H   0  0  0  0  0  0  0  0  0  0  0  0
   -9.7989  -27.0530  -37.4449 H   0  0  0  0  0  0  0  0  0  0  0  0
  -11.3339  -25.2966  -36.1849 H   0  0  0  0  0  0  0  0  0  0  0  0
  -18.8360  -22.2592  -39.6339 H   0  0  0  0  0  0  0  0  0  0  0  0
  -18.6494  -23.7762  -40.5674 H   0  0  0  0  0  0  0  0  0  0  0  0
  -17.6281  -22.3577  -40.9526 H   0  0  0  0  0  0  0  0  0  0  0  0
   -7.7470  -31.3843  -34.6726 H   0  0  0  0  0  0  0  0  0  0  0  0
   -7.9794  -31.9220  -36.3365 H   0  0  0  0  0  0  0  0  0  0  0  0
  -16.6561  -22.6586  -38.6651 H   0  0  0  0  0  0  0  0  0  0  0  0
   -9.9159  -30.3027  -36.4042 H   0  0  0  0  0  0  0  0  0  0  0  0
  1  4  1  0  0  0  0
  1  8  2  0  0  0  0
  2  5  2  0  0  0  0
  2  8  1  0  0  0  0
  3  6  1  0  0  0  0
  3  9  2  0  0  0  0
  4 10  2  0  0  0  0
  5 10  1  0  0  0  0
  6 11  2  0  0  0  0
  7 11  1  0  0  0  0
  7 12  2  0  0  0  0
  8 13  1  0  0  0  0
  9 12  1  0  0  0  0
  9 21  1  0  0  0  0
 10 27  1  0  0  0  0
 11 28  1  0  0  0  0
 12 29  1  0  0  0  0
 13 23  1  0  0  0  0
 13 25  2  0  0  0  0
 14 22  1  0  0  0  0
 14 24  1  0  0  0  0
 14 26  2  0  0  0  0
 15 17  1  0  0  0  0
 15 19  1  0  0  0  0
 16 18  1  0  0  0  0
 16 19  1  0  0  0  0
 17 22  1  0  0  0  0
 18 22  1  0  0  0  0
 19 27  1  0  0  0  0
 20 23  1  0  0  0  0
 21 24  1  0  0  0  0
  1 30  1  0  0  0  0
  2 31  1  0  0  0  0
  3 32  1  0  0  0  0
  4 33  1  0  0  0  0
  5 34  1  0  0  0  0
  6 35  1  0  0  0  0
  7 36  1  0  0  0  0
 15 37  1  0  0  0  0
 15 38  1  0  0  0  0
 16 39  1  0  0  0  0
 16 40  1  0  0  0  0
 17 41  1  0  0  0  0
 17 42  1  0  0  0  0
 18 43  1  0  0  0  0
 18 44  1  0  0  0  0
 19 45  1  0  0  0  0
 20 46  1  0  0  0  0
 20 47  1  0  0  0  0
 20 48  1  0  0  0  0
 21 49  1  0  0  0  0
 21 50  1  0  0  0  0
 23 51  1  0  0  0  0
 24 52  1  0  0  0  0
M  END
> <Name>
A_38

> <SourceTag>
A_38

> <Gold.Version>
5.2

> <Gold.Id.Protein>
6HGV|6HGV_protein|mol2

> <Gold.Goldscore.Fitness>
67.9622

> <Gold.Goldscore.Internal.Vdw>
-13.3173

> <Gold.Goldscore.Internal.Torsion>
-9.0277

> <Gold.Goldscore.External.Vdw>
52.8959

> <Gold.Goldscore.Internal.HBond>
0.0000

> <Gold.Goldscore.External.HBond>
0.2202

> <Gold.Goldscore.Internal.Correction>
-17.3552

> <Gold.Goldscore.Hbonds>
donor molecule, donor type, donor heavy atom, donor atom, acceptor molecule, acceptor atom, score
      L1  H    24    52       P1  1255  0.11

> <Gold.Goldscore.Internal.Vdw.Weighted>
-13.3173

> <Gold.Goldscore.Internal.Torsion.Weighted>
-9.0277

> <Gold.Goldscore.External.Vdw.Weighted>
72.7319

> <Gold.Goldscore.Internal.HBond.Weighted>
0.0000

> <Gold.Goldscore.External.HBond.Weighted>
0.2202

> <Gold.Goldscore.Internal.Correction.Weighted>
-17.3552

> <Gold.Protein.RotatedTorsions>
[ 3781 1176 1175 1172 ] final  172.83 input   60.00 | X-H torsion
[ 3847 1247 1246 1244 ] final   73.62 input   60.00 | X-H torsion
[ 4507 1931 1930 1928 ] final  171.18 input   60.00 | X-H torsion
[ 3677 1070 1069 1066 ] final -102.34 input   60.00 | X-H torsion
[ 3525  925  924  922 ] final  -21.20 input   59.99 | X-H torsion
[ 4531 1957 1955 1953 ] final  -69.89 input   60.00 | X-H torsion

> <Gold.Protein.ActiveResidues>
 PHE267  PRO268  MET310  ASP335  TRP336  MET339  TYR343  THR360  PRO361  ILE363 
 PRO371  SER374  ILE375  ASN378  PHE381  TYR383  GLN384  PHE387  LEU408  LEU417 
 MET419  LEU428  TYR466  MET469  ASN472  ASP496  VAL498  LEU499  MET503  HIS524 
 TRP525 

> <Gold.Protein.RotatedAtoms>
   -3.7390  -29.5126  -30.1635 H   0  0  0  0  0  0  0  0  0  0  0  0  # atno 3525 bound_to 925 
  -11.7012  -23.7377  -31.4242 H   0  0  0  0  0  0  0  0  0  0  0  0  # atno 3677 bound_to 1070
   -9.3046  -36.5787  -32.7641 H   0  0  0  0  0  0  0  0  0  0  0  0  # atno 3781 bound_to 1176
  -14.6552  -28.8444  -37.4205 H   0  0  0  0  0  0  0  0  0  0  0  0  # atno 3847 bound_to 1247
  -12.7806  -23.8052  -40.0814 H   0  0  0  0  0  0  0  0  0  0  0  0  # atno 4507 bound_to 1931
   -1.8283  -32.2648  -36.8805 H   0  0  0  0  0  0  0  0  0  0  0  0  # atno 4531 bound_to 1957
  -10.6749  -37.4497  -32.8715 LP  0  0  0  0  0  0  0  0  0  0  0  0  # atno 5205 bound_to 1176
  -10.1364  -36.6069  -34.1623 LP  0  0  0  0  0  0  0  0  0  0  0  0  # atno 5206 bound_to 1176
  -16.0658  -28.0767  -37.1578 LP  0  0  0  0  0  0  0  0  0  0  0  0  # atno 5215 bound_to 1247
  -14.8473  -27.3106  -37.9291 LP  0  0  0  0  0  0  0  0  0  0  0  0  # atno 5216 bound_to 1247
  -12.7150  -24.7881  -38.7862 LP  0  0  0  0  0  0  0  0  0  0  0  0  # atno 5217 bound_to 1931
  -13.7012  -25.1463  -40.0375 LP  0  0  0  0  0  0  0  0  0  0  0  0  # atno 5218 bound_to 1931
  -11.3587  -22.2877  -30.7697 LP  0  0  0  0  0  0  0  0  0  0  0  0  # atno 5224 bound_to 1070
  -12.7959  -23.0029  -30.4704 LP  0  0  0  0  0  0  0  0  0  0  0  0  # atno 5225 bound_to 1070

$$$$
A_121|SEH_inhibs_minimized|sdf|12|dock9
  -GOLD-   41821 9153D 1   1.00000     0.00000

 48 50  0  0  0  0  0  0  0  0  1 V2000
  -18.8949  -25.1064  -35.6156 C   0  0  0  0  0  0  0  0  0  0  0  0
  -18.0846  -25.0875  -37.8916 C   0  0  0  0  0  0  0  0  0  0  0  0
  -17.6004  -25.3503  -35.1568 C   0  0  0  0  0  0  0  0  0  0  0  0
  -16.7901  -25.3313  -37.4328 C   0  0  0  0  0  0  0  0  0  0  0  0
  -10.4590  -30.8996  -34.7382 C   0  0  0  0  0  0  0  0  0  0  0  0
   -8.1566  -30.1743  -34.8395 C   0  0  0  0  0  0  0  0  0  0  0  0
  -10.1216  -32.0662  -35.4243 C   0  0  0  0  0  0  0  0  0  0  0  0
   -7.8193  -31.3409  -35.5257 C   0  0  0  0  0  0  0  0  0  0  0  0
  -19.1370  -24.9751  -36.9830 C   0  0  0  0  0  0  0  0  0  0  0  0
  -16.5481  -25.4627  -36.0654 C   0  0  0  0  0  0  0  0  0  0  0  0
   -9.4764  -29.9536  -34.4459 C   0  0  0  0  0  0  0  0  0  0  0  0
   -8.8018  -32.2869  -35.8180 C   0  0  0  0  0  0  0  0  0  0  0  0
  -14.0296  -25.3066  -36.1810 C   0  0  0  0  0  0  0  0  0  0  0  0
  -10.9878  -26.6298  -36.5996 C   0  0  0  0  0  0  0  0  0  0  0  0
  -10.7275  -25.2277  -34.5087 C   0  0  0  0  0  0  0  0  0  0  0  0
  -10.7523  -27.8949  -35.7767 C   0  0  0  0  0  0  0  0  0  0  0  0
  -10.4927  -26.4961  -33.6910 C   0  0  0  0  0  0  0  0  0  0  0  0
  -11.5718  -25.4873  -35.7613 C   0  0  2  0  0  0  0  0  0  0  0  0
   -9.8971  -27.6150  -34.5434 C   0  0  1  0  0  0  0  0  0  0  0  0
  -20.5211  -24.7144  -37.4735 C   0  0  0  0  0  0  0  0  0  0  0  0
  -15.2353  -25.7097  -35.6004 N   0  0  0  0  0  0  0  0  0  0  0  0
  -12.9502  -25.7514  -35.4122 N   0  0  0  0  0  0  0  0  0  0  0  0
  -13.8957  -24.6557  -37.2146 O   0  0  0  0  0  0  0  0  0  0  0  0
   -9.8076  -28.8080  -33.7721 O   0  0  0  0  0  0  0  0  0  0  0  0
   -8.4779  -33.4073  -36.4770 F   0  0  0  0  0  0  0  0  0  0  0  0
  -21.3188  -24.0913  -36.5562 F   0  0  0  0  0  0  0  0  0  0  0  0
  -20.5673  -23.9195  -38.5833 F   0  0  0  0  0  0  0  0  0  0  0  0
  -21.1815  -25.8589  -37.8152 F   0  0  0  0  0  0  0  0  0  0  0  0
  -19.7092  -25.0225  -34.9007 H   0  0  0  0  0  0  0  0  0  0  0  0
  -18.2644  -24.9872  -38.9588 H   0  0  0  0  0  0  0  0  0  0  0  0
  -17.4232  -25.4506  -34.0889 H   0  0  0  0  0  0  0  0  0  0  0  0
  -15.9775  -25.4182  -38.1497 H   0  0  0  0  0  0  0  0  0  0  0  0
  -11.4889  -30.7334  -34.4341 H   0  0  0  0  0  0  0  0  0  0  0  0
   -7.3867  -29.4412  -34.6147 H   0  0  0  0  0  0  0  0  0  0  0  0
  -10.8864  -32.8029  -35.6522 H   0  0  0  0  0  0  0  0  0  0  0  0
   -6.7919  -31.5131  -35.8324 H   0  0  0  0  0  0  0  0  0  0  0  0
  -10.0311  -26.3043  -37.0276 H   0  0  0  0  0  0  0  0  0  0  0  0
  -11.6491  -26.8628  -37.4427 H   0  0  0  0  0  0  0  0  0  0  0  0
  -11.2049  -24.4704  -33.8753 H   0  0  0  0  0  0  0  0  0  0  0  0
   -9.7553  -24.8193  -34.8132 H   0  0  0  0  0  0  0  0  0  0  0  0
  -11.7121  -28.3321  -35.4723 H   0  0  0  0  0  0  0  0  0  0  0  0
  -10.2664  -28.6584  -36.3964 H   0  0  0  0  0  0  0  0  0  0  0  0
   -9.8244  -26.2776  -32.8491 H   0  0  0  0  0  0  0  0  0  0  0  0
  -11.4335  -26.8350  -33.2384 H   0  0  0  0  0  0  0  0  0  0  0  0
  -11.5949  -24.5761  -36.3695 H   0  0  0  0  0  0  0  0  0  0  0  0
   -8.8821  -27.3438  -34.8579 H   0  0  0  0  0  0  0  0  0  0  0  0
  -15.1656  -26.2452  -34.7388 H   0  0  0  0  0  0  0  0  0  0  0  0
  -13.1426  -26.2840  -34.5704 H   0  0  0  0  0  0  0  0  0  0  0  0
  1  3  1  0  0  0  0
  1  9  2  0  0  0  0
  2  4  2  0  0  0  0
  2  9  1  0  0  0  0
  3 10  2  0  0  0  0
  4 10  1  0  0  0  0
  5  7  1  0  0  0  0
  5 11  2  0  0  0  0
  6  8  2  0  0  0  0
  6 11  1  0  0  0  0
  7 12  2  0  0  0  0
  8 12  1  0  0  0  0
  9 20  1  0  0  0  0
 10 21  1  0  0  0  0
 11 24  1  0  0  0  0
 12 25  1  0  0  0  0
 13 21  1  0  0  0  0
 13 22  1  0  0  0  0
 13 23  2  0  0  0  0
 14 16  1  0  0  0  0
 14 18  1  0  0  0  0
 15 17  1  0  0  0  0
 15 18  1  0  0  0  0
 16 19  1  0  0  0  0
 17 19  1  0  0  0  0
 18 22  1  0  0  0  0
 19 24  1  0  0  0  0
 20 26  1  0  0  0  0
 20 27  1  0  0  0  0
 20 28  1  0  0  0  0
  1 29  1  0  0  0  0
  2 30  1  0  0  0  0
  3 31  1  0  0  0  0
  4 32  1  0  0  0  0
  5 33  1  0  0  0  0
  6 34  1  0  0  0  0
  7 35  1  0  0  0  0
  8 36  1  0  0  0  0
 14 37  1  0  0  0  0
 14 38  1  0  0  0  0
 15 39  1  0  0  0  0
 15 40  1  0  0  0  0
 16 41  1  0  0  0  0
 16 42  1  0  0  0  0
 17 43  1  0  0  0  0
 17 44  1  0  0  0  0
 18 45  1  0  0  0  0
 19 46  1  0  0  0  0
 21 47  1  0  0  0  0
 22 48  1  0  0  0  0
M  END
> <SourceTag>
A_121

> <Gold.Version>
5.2

> <Gold.Id.Protein>
6HGV|6HGV_protein|mol2

> <Gold.Goldscore.Fitness>
66.6684

> <Gold.Goldscore.Internal.Vdw>
-0.6984

> <Gold.Goldscore.Internal.Torsion>
-5.0792

> <Gold.Goldscore.External.Vdw>
49.0851

> <Gold.Goldscore.Internal.HBond>
0.0000

> <Gold.Goldscore.External.HBond>
0.5638

> <Gold.Goldscore.Internal.Correction>
-4.3902

> <Gold.Goldscore.Hbonds>
donor molecule, donor type, donor heavy atom, donor atom, acceptor molecule, acceptor atom, score
      P1  H  1247  3847       L1    23  0.03
      P1  H  1931  4507       L1    23  0.26

> <Gold.Goldscore.Internal.Vdw.Weighted>
-0.6984

> <Gold.Goldscore.Internal.Torsion.Weighted>
-5.0792

> <Gold.Goldscore.External.Vdw.Weighted>
67.4920

> <Gold.Goldscore.Internal.HBond.Weighted>
0.0000

> <Gold.Goldscore.External.HBond.Weighted>
0.5638

> <Gold.Goldscore.Internal.Correction.Weighted>
-4.3902

> <Gold.Protein.RotatedTorsions>
[ 3781 1176 1175 1172 ] final -100.83 input   60.00 | X-H torsion
[ 3847 1247 1246 1244 ] final -178.25 input   60.00 | X-H torsion
[ 4507 1931 1930 1928 ] final   32.19 input   60.00 | X-H torsion
[ 3677 1070 1069 1066 ] final  -92.45 input   60.00 | X-H torsion
[ 3525  925  924  922 ] final    0.99 input   59.99 | X-H torsion
[ 4531 1957 1955 1953 ] final   20.49 input   60.00 | X-H torsion

> <Gold.Protein.ActiveResidues>
 PHE267  PRO268  MET310  ASP335  TRP336  MET339  TYR343  THR360  PRO361  ILE363 
 PRO371  SER374  ILE375  ASN378  PHE381  TYR383  GLN384  PHE387  LEU408  LEU417 
 MET419  LEU428  TYR466  MET469  ASN472  ASP496  VAL498  LEU499  MET503  HIS524 
 TRP525 

> <Gold.Protein.RotatedAtoms>
   -3.5881  -29.5486  -30.4887 H   0  0  0  0  0  0  0  0  0  0  0  0  # atno 3525 bound_to 925 
  -11.8464  -23.7974  -31.3867 H   0  0  0  0  0  0  0  0  0  0  0  0  # atno 3677 bound_to 1070
   -9.6814  -36.3776  -33.9719 H   0  0  0  0  0  0  0  0  0  0  0  0  # atno 3781 bound_to 1176
  -14.6907  -27.4242  -37.9498 H   0  0  0  0  0  0  0  0  0  0  0  0  # atno 3847 bound_to 1247
  -12.9064  -25.0280  -38.8305 H   0  0  0  0  0  0  0  0  0  0  0  0  # atno 4507 bound_to 1931
   -3.0317  -32.7828  -36.6607 H   0  0  0  0  0  0  0  0  0  0  0  0  # atno 4531 bound_to 1957
   -9.5964  -36.8950  -32.4314 LP  0  0  0  0  0  0  0  0  0  0  0  0  # atno 5205 bound_to 1176
  -10.8354  -37.3640  -33.3861 LP  0  0  0  0  0  0  0  0  0  0  0  0  # atno 5206 bound_to 1176
  -14.8069  -28.9235  -37.3280 LP  0  0  0  0  0  0  0  0  0  0  0  0  # atno 5215 bound_to 1247
  -16.0703  -27.8940  -37.2259 LP  0  0  0  0  0  0  0  0  0  0  0  0  # atno 5216 bound_to 1247
  -13.6789  -24.9294  -40.2594 LP  0  0  0  0  0  0  0  0  0  0  0  0  # atno 5217 bound_to 1931
  -12.6106  -23.7736  -39.8240 LP  0  0  0  0  0  0  0  0  0  0  0  0  # atno 5218 bound_to 1931
  -11.2589  -22.3717  -30.8666 LP  0  0  0  0  0  0  0  0  0  0  0  0  # atno 5224 bound_to 1070
  -12.7495  -22.8589  -30.4112 LP  0  0  0  0  0  0  0  0  0  0  0  0  # atno 5225 bound_to 1070

$$$$
A_117|SEH_inhibs_minimized|sdf|10|dock8
  -GOLD-   41821 9113D 1   1.00000     0.00000

 69 72  0  0  0  0  0  0  0  0  1 V2000
   -8.5293  -29.1626  -33.9607 C   0  0  0  0  0  0  0  0  0  0  0  0
  -11.3939  -28.1144  -34.7235 C   0  0  0  0  0  0  0  0  0  0  0  0
  -10.4918  -25.9448  -33.7864 C   0  0  0  0  0  0  0  0  0  0  0  0
  -11.3708  -27.5152  -36.1327 C   0  0  0  0  0  0  0  0  0  0  0  0
  -10.4666  -25.3464  -35.1958 C   0  0  0  0  0  0  0  0  0  0  0  0
   -5.0823  -32.7805  -35.6061 C   0  0  0  0  0  0  0  0  0  0  0  0
   -6.2055  -33.3180  -33.4293 C   0  0  0  0  0  0  0  0  0  0  0  0
   -4.0659  -32.0102  -33.4465 C   0  0  0  0  0  0  0  0  0  0  0  0
   -7.2373  -31.6534  -34.9952 C   0  0  0  0  0  0  0  0  0  0  0  0
   -5.0952  -30.3444  -35.0125 C   0  0  0  0  0  0  0  0  0  0  0  0
   -6.2198  -30.8823  -32.8320 C   0  0  0  0  0  0  0  0  0  0  0  0
   -6.4401  -32.9663  -34.9082 C   0  0  0  0  0  0  0  0  0  0  0  0
   -4.2894  -31.6519  -34.9256 C   0  0  0  0  0  0  0  0  0  0  0  0
   -5.4185  -32.1922  -32.7371 C   0  0  0  0  0  0  0  0  0  0  0  0
  -10.3582  -27.4710  -33.7958 C   0  0  2  0  0  0  0  0  0  0  0  0
  -11.5032  -25.9929  -36.1150 C   0  0  2  0  0  0  0  0  0  0  0  0
   -6.4615  -30.5065  -34.3099 C   0  0  0  0  0  0  0  0  0  0  0  0
  -21.9050  -24.5241  -38.2392 C   0  0  0  0  0  0  0  0  0  0  0  0
  -20.4717  -24.2410  -38.6361 C   0  0  0  0  0  0  0  0  0  0  0  0
  -13.7065  -25.5040  -36.7704 C   0  0  0  0  0  0  0  0  0  0  0  0
  -15.1328  -25.5224  -36.2557 C   0  0  0  0  0  0  0  0  0  0  0  0
  -18.2388  -24.6092  -38.0025 C   0  0  0  0  0  0  0  0  0  0  0  0
  -17.3647  -25.1278  -36.8769 C   0  0  0  0  0  0  0  0  0  0  0  0
   -9.0168  -27.8732  -34.1566 N   0  0  0  0  0  0  0  0  0  0  0  0
   -7.2127  -29.2733  -34.3962 N   0  0  0  0  0  0  0  0  0  0  0  0
   -9.1778  -30.0846  -33.4677 O   0  0  0  0  0  0  0  0  0  0  0  0
  -12.8168  -25.6537  -35.6746 O   0  0  0  0  0  0  0  0  0  0  0  0
  -19.6048  -24.7446  -37.6294 O   0  0  0  0  0  0  0  0  0  0  0  0
  -16.0090  -25.1205  -37.3018 O   0  0  0  0  0  0  0  0  0  0  0  0
  -12.3935  -27.9763  -34.2923 H   0  0  0  0  0  0  0  0  0  0  0  0
  -11.2272  -29.1964  -34.7895 H   0  0  0  0  0  0  0  0  0  0  0  0
   -9.6890  -25.4951  -33.1896 H   0  0  0  0  0  0  0  0  0  0  0  0
  -11.4364  -25.6720  -33.2989 H   0  0  0  0  0  0  0  0  0  0  0  0
  -10.4359  -27.7946  -36.6330 H   0  0  0  0  0  0  0  0  0  0  0  0
  -12.1936  -27.9534  -36.7100 H   0  0  0  0  0  0  0  0  0  0  0  0
  -10.6541  -24.2689  -35.1195 H   0  0  0  0  0  0  0  0  0  0  0  0
   -9.4668  -25.4725  -35.6283 H   0  0  0  0  0  0  0  0  0  0  0  0
   -4.5104  -33.7158  -35.5671 H   0  0  0  0  0  0  0  0  0  0  0  0
   -5.2349  -32.5447  -36.6664 H   0  0  0  0  0  0  0  0  0  0  0  0
   -7.1669  -33.4690  -32.9231 H   0  0  0  0  0  0  0  0  0  0  0  0
   -5.6534  -34.2625  -33.3524 H   0  0  0  0  0  0  0  0  0  0  0  0
   -3.4762  -32.9319  -33.3698 H   0  0  0  0  0  0  0  0  0  0  0  0
   -3.4872  -31.2199  -32.9529 H   0  0  0  0  0  0  0  0  0  0  0  0
   -7.4323  -31.4060  -36.0470 H   0  0  0  0  0  0  0  0  0  0  0  0
   -8.2201  -31.7820  -34.5226 H   0  0  0  0  0  0  0  0  0  0  0  0
   -4.5269  -29.5251  -34.5526 H   0  0  0  0  0  0  0  0  0  0  0  0
   -5.2399  -30.0649  -36.0645 H   0  0  0  0  0  0  0  0  0  0  0  0
   -7.1775  -30.9922  -32.3065 H   0  0  0  0  0  0  0  0  0  0  0  0
   -5.6779  -30.0775  -32.3181 H   0  0  0  0  0  0  0  0  0  0  0  0
   -6.9998  -33.7720  -35.3961 H   0  0  0  0  0  0  0  0  0  0  0  0
   -3.3229  -31.5250  -35.4258 H   0  0  0  0  0  0  0  0  0  0  0  0
   -5.2530  -32.4492  -31.6849 H   0  0  0  0  0  0  0  0  0  0  0  0
  -10.5102  -27.8474  -32.7779 H   0  0  0  0  0  0  0  0  0  0  0  0
  -11.3911  -25.6057  -37.1337 H   0  0  0  0  0  0  0  0  0  0  0  0
  -22.1015  -25.5998  -38.2276 H   0  0  0  0  0  0  0  0  0  0  0  0
  -22.1187  -24.1149  -37.2464 H   0  0  0  0  0  0  0  0  0  0  0  0
  -22.6001  -24.0456  -38.9370 H   0  0  0  0  0  0  0  0  0  0  0  0
  -20.3070  -23.1642  -38.7367 H   0  0  0  0  0  0  0  0  0  0  0  0
  -20.2321  -24.7305  -39.5847 H   0  0  0  0  0  0  0  0  0  0  0  0
  -13.4786  -24.5561  -37.2674 H   0  0  0  0  0  0  0  0  0  0  0  0
  -13.5389  -26.3334  -37.4636 H   0  0  0  0  0  0  0  0  0  0  0  0
  -15.2596  -24.8280  -35.4192 H   0  0  0  0  0  0  0  0  0  0  0  0
  -15.4138  -26.5321  -35.9423 H   0  0  0  0  0  0  0  0  0  0  0  0
  -18.0784  -25.1806  -38.9219 H   0  0  0  0  0  0  0  0  0  0  0  0
  -18.0373  -23.5500  -38.1866 H   0  0  0  0  0  0  0  0  0  0  0  0
  -17.6329  -26.1549  -36.6101 H   0  0  0  0  0  0  0  0  0  0  0  0
  -17.4515  -24.4838  -35.9969 H   0  0  0  0  0  0  0  0  0  0  0  0
   -8.4006  -27.1820  -34.5729 H   0  0  0  0  0  0  0  0  0  0  0  0
   -6.7704  -28.4723  -34.8333 H   0  0  0  0  0  0  0  0  0  0  0  0
  1 24  1  0  0  0  0
  1 25  1  0  0  0  0
  1 26  2  0  0  0  0
  2  4  1  0  0  0  0
  2 15  1  0  0  0  0
  3  5  1  0  0  0  0
  3 15  1  0  0  0  0
  4 16  1  0  0  0  0
  5 16  1  0  0  0  0
  6 12  1  0  0  0  0
  6 13  1  0  0  0  0
  7 12  1  0  0  0  0
  7 14  1  0  0  0  0
  8 13  1  0  0  0  0
  8 14  1  0  0  0  0
  9 12  1  0  0  0  0
  9 17  1  0  0  0  0
 10 13  1  0  0  0  0
 10 17  1  0  0  0  0
 11 14  1  0  0  0  0
 11 17  1  0  0  0  0
 15 24  1  0  0  0  0
 16 27  1  0  0  0  0
 17 25  1  0  0  0  0
 18 19  1  0  0  0  0
 19 28  1  0  0  0  0
 20 21  1  0  0  0  0
 20 27  1  0  0  0  0
 21 29  1  0  0  0  0
 22 23  1  0  0  0  0
 22 28  1  0  0  0  0
 23 29  1  0  0  0  0
  2 30  1  0  0  0  0
  2 31  1  0  0  0  0
  3 32  1  0  0  0  0
  3 33  1  0  0  0  0
  4 34  1  0  0  0  0
  4 35  1  0  0  0  0
  5 36  1  0  0  0  0
  5 37  1  0  0  0  0
  6 38  1  0  0  0  0
  6 39  1  0  0  0  0
  7 40  1  0  0  0  0
  7 41  1  0  0  0  0
  8 42  1  0  0  0  0
  8 43  1  0  0  0  0
  9 44  1  0  0  0  0
  9 45  1  0  0  0  0
 10 46  1  0  0  0  0
 10 47  1  0  0  0  0
 11 48  1  0  0  0  0
 11 49  1  0  0  0  0
 12 50  1  0  0  0  0
 13 51  1  0  0  0  0
 14 52  1  0  0  0  0
 15 53  1  0  0  0  0
 16 54  1  0  0  0  0
 18 55  1  0  0  0  0
 18 56  1  0  0  0  0
 18 57  1  0  0  0  0
 19 58  1  0  0  0  0
 19 59  1  0  0  0  0
 20 60  1  0  0  0  0
 20 61  1  0  0  0  0
 21 62  1  0  0  0  0
 21 63  1  0  0  0  0
 22 64  1  0  0  0  0
 22 65  1  0  0  0  0
 23 66  1  0  0  0  0
 23 67  1  0  0  0  0
 24 68  1  0  0  0  0
 25 69  1  0  0  0  0
M  END
> <SourceTag>
A_117

> <Gold.Version>
5.2

> <Gold.Id.Protein>
6HGV|6HGV_protein|mol2

> <Gold.Goldscore.Fitness>
73.7450

> <Gold.Goldscore.Internal.Vdw>
-10.8450

> <Gold.Goldscore.Internal.Torsion>
-4.3420

> <Gold.Goldscore.External.Vdw>
54.5428

> <Gold.Goldscore.Internal.HBond>
0.0000

> <Gold.Goldscore.External.HBond>
0.0000

> <Gold.Goldscore.Internal.Correction>
-13.9358

> <Gold.Goldscore.Internal.Vdw.Weighted>
-10.8450

> <Gold.Goldscore.Internal.Torsion.Weighted>
-4.3420

> <Gold.Goldscore.External.Vdw.Weighted>
74.9963

> <Gold.Goldscore.Internal.HBond.Weighted>
0.0000

> <Gold.Goldscore.External.HBond.Weighted>
0.0000

> <Gold.Goldscore.Internal.Correction.Weighted>
-13.9358

> <Gold.Protein.RotatedTorsions>
[ 3781 1176 1175 1172 ] final  174.86 input   60.00 | X-H torsion
[ 3847 1247 1246 1244 ] final   38.84 input   60.00 | X-H torsion
[ 4507 1931 1930 1928 ] final  154.16 input   60.00 | X-H torsion
[ 3677 1070 1069 1066 ] final -117.36 input   60.00 | X-H torsion
[ 3525  925  924  922 ] final   53.82 input   59.99 | X-H torsion
[ 4531 1957 1955 1953 ] final  -83.11 input   60.00 | X-H torsion

> <Gold.Protein.ActiveResidues>
 PHE267  PRO268  MET310  ASP335  TRP336  MET339  TYR343  THR360  PRO361  ILE363 
 PRO371  SER374  ILE375  ASN378  PHE381  TYR383  GLN384  PHE387  LEU408  LEU417 
 MET419  LEU428  TYR466  MET469  ASN472  ASP496  VAL498  LEU499  MET503  HIS524 
 TRP525 

> <Gold.Protein.RotatedAtoms>
   -2.8974  -29.8148  -30.8710 H   0  0  0  0  0  0  0  0  0  0  0  0  # atno 3525 bound_to 925 
  -11.4961  -23.6067  -31.4503 H   0  0  0  0  0  0  0  0  0  0  0  0  # atno 3677 bound_to 1070
   -9.2941  -36.5617  -32.7906 H   0  0  0  0  0  0  0  0  0  0  0  0  # atno 3781 bound_to 1176
  -15.1490  -28.9583  -37.1831 H   0  0  0  0  0  0  0  0  0  0  0  0  # atno 3847 bound_to 1247
  -12.6275  -23.7790  -39.8519 H   0  0  0  0  0  0  0  0  0  0  0  0  # atno 4507 bound_to 1931
   -1.6431  -32.3688  -36.9175 H   0  0  0  0  0  0  0  0  0  0  0  0  # atno 4531 bound_to 1957
  -10.6574  -37.4486  -32.8430 LP  0  0  0  0  0  0  0  0  0  0  0  0  # atno 5205 bound_to 1176
  -10.1644  -36.6249  -34.1641 LP  0  0  0  0  0  0  0  0  0  0  0  0  # atno 5206 bound_to 1176
  -15.9737  -27.5704  -37.3876 LP  0  0  0  0  0  0  0  0  0  0  0  0  # atno 5215 bound_to 1247
  -14.4420  -27.7022  -37.9384 LP  0  0  0  0  0  0  0  0  0  0  0  0  # atno 5216 bound_to 1247
  -12.8860  -25.0067  -38.8157 LP  0  0  0  0  0  0  0  0  0  0  0  0  # atno 5217 bound_to 1931
  -13.6844  -24.9541  -40.2392 LP  0  0  0  0  0  0  0  0  0  0  0  0  # atno 5218 bound_to 1931
  -11.5429  -22.2019  -30.6303 LP  0  0  0  0  0  0  0  0  0  0  0  0  # atno 5224 bound_to 1070
  -12.8182  -23.2207  -30.5835 LP  0  0  0  0  0  0  0  0  0  0  0  0  # atno 5225 bound_to 1070

$$$$
A_28|SEH_inhibs_minimized|sdf|23|dock6
  -GOLD-   41821 9393D 1   1.00000     0.00000

 47 49  0  0  0  0  0  0  0  0  1 V2000
   -6.9366  -30.4253  -35.4159 C   0  0  0  0  0  0  0  0  0  0  0  0
   -8.2778  -30.7717  -35.5795 C   0  0  0  0  0  0  0  0  0  0  0  0
   -6.5963  -29.1598  -34.9376 C   0  0  0  0  0  0  0  0  0  0  0  0
   -9.2787  -29.8525  -35.2647 C   0  0  0  0  0  0  0  0  0  0  0  0
   -7.5973  -28.2409  -34.6227 C   0  0  0  0  0  0  0  0  0  0  0  0
  -15.4196  -25.3998  -38.1600 C   0  0  0  0  0  0  0  0  0  0  0  0
  -15.9070  -25.0048  -39.4058 C   0  0  0  0  0  0  0  0  0  0  0  0
  -18.0878  -24.6325  -38.4346 C   0  0  0  0  0  0  0  0  0  0  0  0
   -8.9385  -28.5872  -34.7862 C   0  0  0  0  0  0  0  0  0  0  0  0
  -16.2663  -25.4116  -37.0515 C   0  0  0  0  0  0  0  0  0  0  0  0
  -17.2412  -24.6211  -39.5431 C   0  0  0  0  0  0  0  0  0  0  0  0
  -17.6004  -25.0278  -37.1887 C   0  0  0  0  0  0  0  0  0  0  0  0
  -13.3890  -26.7017  -35.4742 C   0  0  0  0  0  0  0  0  0  0  0  0
  -10.5566  -25.0778  -33.9366 C   0  0  0  0  0  0  0  0  0  0  0  0
   -9.4831  -26.1575  -34.0868 C   0  0  0  0  0  0  0  0  0  0  0  0
  -11.4733  -25.0282  -35.1527 C   0  0  0  0  0  0  0  0  0  0  0  0
  -11.0153  -27.4024  -35.6451 C   0  0  0  0  0  0  0  0  0  0  0  0
  -10.0481  -27.5681  -34.4370 C   0  0  1  0  0  0  0  0  0  0  0  0
  -10.8200  -28.1244  -33.2162 C   0  0  0  0  0  0  0  0  0  0  0  0
  -15.7025  -25.8424  -35.7283 C   0  0  0  0  0  0  0  0  0  0  0  0
  -12.0260  -26.3586  -35.4279 N   0  0  0  0  0  0  0  0  0  0  0  0
  -14.2717  -25.6446  -35.6596 N   0  0  0  0  0  0  0  0  0  0  0  0
  -13.7903  -27.8649  -35.3591 O   0  0  0  0  0  0  0  0  0  0  0  0
  -17.8417  -24.1340  -41.0804 Cl  0  0  0  0  0  0  0  0  0  0  0  0
  -18.6774  -25.0292  -35.8397 Cl  0  0  0  0  0  0  0  0  0  0  0  0
   -6.1569  -31.1410  -35.6599 H   0  0  0  0  0  0  0  0  0  0  0  0
   -8.5429  -31.7571  -35.9507 H   0  0  0  0  0  0  0  0  0  0  0  0
   -5.5519  -28.8901  -34.8097 H   0  0  0  0  0  0  0  0  0  0  0  0
  -10.3212  -30.1310  -35.3947 H   0  0  0  0  0  0  0  0  0  0  0  0
   -7.3227  -27.2579  -34.2495 H   0  0  0  0  0  0  0  0  0  0  0  0
  -14.3784  -25.6969  -38.0640 H   0  0  0  0  0  0  0  0  0  0  0  0
  -15.2357  -25.0006  -40.2608 H   0  0  0  0  0  0  0  0  0  0  0  0
  -19.1278  -24.3321  -38.5429 H   0  0  0  0  0  0  0  0  0  0  0  0
  -11.1504  -25.2761  -33.0365 H   0  0  0  0  0  0  0  0  0  0  0  0
  -10.0790  -24.1019  -33.7936 H   0  0  0  0  0  0  0  0  0  0  0  0
   -8.7882  -25.8393  -34.8770 H   0  0  0  0  0  0  0  0  0  0  0  0
   -8.8878  -26.2083  -33.1658 H   0  0  0  0  0  0  0  0  0  0  0  0
  -12.2433  -24.2792  -34.9698 H   0  0  0  0  0  0  0  0  0  0  0  0
  -10.9164  -24.7157  -36.0438 H   0  0  0  0  0  0  0  0  0  0  0  0
  -10.4557  -27.1106  -36.5445 H   0  0  0  0  0  0  0  0  0  0  0  0
  -11.4910  -28.3616  -35.8813 H   0  0  0  0  0  0  0  0  0  0  0  0
  -11.6722  -27.4846  -33.0028 H   0  0  0  0  0  0  0  0  0  0  0  0
  -10.1623  -28.1503  -32.3514 H   0  0  0  0  0  0  0  0  0  0  0  0
  -11.1693  -29.1302  -33.4347 H   0  0  0  0  0  0  0  0  0  0  0  0
  -16.1608  -25.2759  -34.9105 H   0  0  0  0  0  0  0  0  0  0  0  0
  -15.9032  -26.9027  -35.5421 H   0  0  0  0  0  0  0  0  0  0  0  0
  -13.9019  -24.7081  -35.7492 H   0  0  0  0  0  0  0  0  0  0  0  0
  1  2  2  0  0  0  0
  1  3  1  0  0  0  0
  2  4  1  0  0  0  0
  3  5  2  0  0  0  0
  4  9  2  0  0  0  0
  5  9  1  0  0  0  0
  6  7  1  0  0  0  0
  6 10  2  0  0  0  0
  7 11  2  0  0  0  0
  8 11  1  0  0  0  0
  8 12  2  0  0  0  0
  9 18  1  0  0  0  0
 10 12  1  0  0  0  0
 10 20  1  0  0  0  0
 11 24  1  0  0  0  0
 12 25  1  0  0  0  0
 13 21  1  0  0  0  0
 13 22  1  0  0  0  0
 13 23  2  0  0  0  0
 14 15  1  0  0  0  0
 14 16  1  0  0  0  0
 15 18  1  0  0  0  0
 16 21  1  0  0  0  0
 17 18  1  0  0  0  0
 17 21  1  0  0  0  0
 18 19  1  0  0  0  0
 20 22  1  0  0  0  0
  1 26  1  0  0  0  0
  2 27  1  0  0  0  0
  3 28  1  0  0  0  0
  4 29  1  0  0  0  0
  5 30  1  0  0  0  0
  6 31  1  0  0  0  0
  7 32  1  0  0  0  0
  8 33  1  0  0  0  0
 14 34  1  0  0  0  0
 14 35  1  0  0  0  0
 15 36  1  0  0  0  0
 15 37  1  0  0  0  0
 16 38  1  0  0  0  0
 16 39  1  0  0  0  0
 17 40  1  0  0  0  0
 17 41  1  0  0  0  0
 19 42  1  0  0  0  0
 19 43  1  0  0  0  0
 19 44  1  0  0  0  0
 20 45  1  0  0  0  0
 20 46  1  0  0  0  0
 22 47  1  0  0  0  0
M  END
> <Name>
A_28

> <SourceTag>
A_28

> <Gold.Version>
5.2

> <Gold.Id.Protein>
6HGV|6HGV_protein|mol2

> <Gold.Goldscore.Fitness>
69.4306

> <Gold.Goldscore.Internal.Vdw>
-17.5553

> <Gold.Goldscore.Internal.Torsion>
-4.1177

> <Gold.Goldscore.External.Vdw>
51.1600

> <Gold.Goldscore.Internal.HBond>
0.0000

> <Gold.Goldscore.External.HBond>
1.2402

> <Gold.Goldscore.Internal.Correction>
-19.5183

> <Gold.Goldscore.Hbonds>
donor molecule, donor type, donor heavy atom, donor atom, acceptor molecule, acceptor atom, score
      L1  H    22    47       P1   853  0.21

> <Gold.Goldscore.Internal.Vdw.Weighted>
-17.5553

> <Gold.Goldscore.Internal.Torsion.Weighted>
-4.1177

> <Gold.Goldscore.External.Vdw.Weighted>
70.3450

> <Gold.Goldscore.Internal.HBond.Weighted>
0.0000

> <Gold.Goldscore.External.HBond.Weighted>
1.2402

> <Gold.Goldscore.Internal.Correction.Weighted>
-19.5183

> <Gold.Protein.RotatedTorsions>
[ 3781 1176 1175 1172 ] final  153.43 input   60.00 | X-H torsion
[ 3847 1247 1246 1244 ] final   99.63 input   60.00 | X-H torsion
[ 4507 1931 1930 1928 ] final   71.02 input   60.00 | X-H torsion
[ 3677 1070 1069 1066 ] final -128.86 input   60.00 | X-H torsion
[ 3525  925  924  922 ] final   -7.87 input   59.99 | X-H torsion
[ 4531 1957 1955 1953 ] final  -46.10 input   60.00 | X-H torsion

> <Gold.Protein.ActiveResidues>
 PHE267  PRO268  MET310  ASP335  TRP336  MET339  TYR343  THR360  PRO361  ILE363 
 PRO371  SER374  ILE375  ASN378  PHE381  TYR383  GLN384  PHE387  LEU408  LEU417 
 MET419  LEU428  TYR466  MET469  ASN472  ASP496  VAL498  LEU499  MET503  HIS524 
 TRP525 

> <Gold.Protein.RotatedAtoms>
   -3.6620  -29.5276  -30.3661 H   0  0  0  0  0  0  0  0  0  0  0  0  # atno 3525 bound_to 925 
  -11.3595  -23.4782  -31.4444 H   0  0  0  0  0  0  0  0  0  0  0  0  # atno 3677 bound_to 1070
   -9.4486  -36.7562  -32.5467 H   0  0  0  0  0  0  0  0  0  0  0  0  # atno 3781 bound_to 1176
  -14.4029  -28.5743  -37.6229 H   0  0  0  0  0  0  0  0  0  0  0  0  # atno 3847 bound_to 1247
  -12.5572  -24.5132  -38.8522 H   0  0  0  0  0  0  0  0  0  0  0  0  # atno 4507 bound_to 1931
   -2.2010  -32.1955  -36.8085 H   0  0  0  0  0  0  0  0  0  0  0  0  # atno 4531 bound_to 1957
  -10.7990  -37.4233  -33.1627 LP  0  0  0  0  0  0  0  0  0  0  0  0  # atno 5205 bound_to 1176
   -9.8673  -36.4544  -34.0900 LP  0  0  0  0  0  0  0  0  0  0  0  0  # atno 5206 bound_to 1176
  -15.9270  -28.4664  -37.0632 LP  0  0  0  0  0  0  0  0  0  0  0  0  # atno 5215 bound_to 1247
  -15.2401  -27.1929  -37.8200 LP  0  0  0  0  0  0  0  0  0  0  0  0  # atno 5216 bound_to 1247
  -13.6507  -25.3065  -39.7594 LP  0  0  0  0  0  0  0  0  0  0  0  0  # atno 5217 bound_to 1931
  -12.9906  -23.9149  -40.3021 LP  0  0  0  0  0  0  0  0  0  0  0  0  # atno 5218 bound_to 1931
  -11.7036  -22.1733  -30.5350 LP  0  0  0  0  0  0  0  0  0  0  0  0  # atno 5224 bound_to 1070
  -12.7951  -23.3786  -30.6848 LP  0  0  0  0  0  0  0  0  0  0  0  0  # atno 5225 bound_to 1070

$$$$
A_99|SEH_inhibs_minimized|sdf|58|dock5
  -GOLD-   4182110473D 1   1.00000     0.00000

 43 46  0  0  0  0  0  0  0  0  1 V2000
  -20.3919  -23.9209  -38.7760 C   0  0  0  0  0  0  0  0  0  0  0  0
  -18.0566  -23.2575  -38.4787 C   0  0  0  0  0  0  0  0  0  0  0  0
  -18.9315  -25.1352  -37.2354 C   0  0  0  0  0  0  0  0  0  0  0  0
  -16.8124  -23.4369  -37.8741 C   0  0  0  0  0  0  0  0  0  0  0  0
  -17.6873  -25.3147  -36.6309 C   0  0  0  0  0  0  0  0  0  0  0  0
  -19.1162  -24.1066  -38.1593 C   0  0  0  0  0  0  0  0  0  0  0  0
  -16.6278  -24.4656  -36.9503 C   0  0  0  0  0  0  0  0  0  0  0  0
  -14.7900  -25.8421  -35.8976 C   0  0  0  0  0  0  0  0  0  0  0  0
   -9.1597  -26.8830  -34.3942 C   0  0  0  0  0  0  0  0  0  0  0  0
  -10.9626  -28.4010  -35.2492 C   0  0  0  0  0  0  0  0  0  0  0  0
  -11.1588  -27.3751  -32.9632 C   0  0  0  0  0  0  0  0  0  0  0  0
  -10.6696  -26.1209  -36.2447 C   0  0  0  0  0  0  0  0  0  0  0  0
  -10.8654  -25.0969  -33.9631 C   0  0  0  0  0  0  0  0  0  0  0  0
  -10.1810  -27.9627  -33.9972 C   0  0  0  0  0  0  0  0  0  0  0  0
   -9.8855  -25.6697  -35.0009 C   0  0  0  0  0  0  0  0  0  0  0  0
  -11.7051  -27.1962  -35.8596 C   0  0  0  0  0  0  0  0  0  0  0  0
  -11.9022  -26.1658  -33.5636 C   0  0  0  0  0  0  0  0  0  0  0  0
  -12.6887  -26.6419  -34.8051 C   0  0  0  0  0  0  0  0  0  0  0  0
  -21.4279  -23.7700  -39.2767 N   0  0  0  0  0  0  0  0  0  0  0  0
  -15.3661  -24.6470  -36.3373 N   0  0  0  0  0  0  0  0  0  0  0  0
  -13.5279  -25.5985  -35.3454 N   0  0  0  0  0  0  0  0  0  0  0  0
  -15.2865  -26.9639  -35.9678 O   0  0  0  0  0  0  0  0  0  0  0  0
  -18.1852  -22.4503  -39.1961 H   0  0  0  0  0  0  0  0  0  0  0  0
  -19.7483  -25.8047  -36.9759 H   0  0  0  0  0  0  0  0  0  0  0  0
  -15.9934  -22.7699  -38.1310 H   0  0  0  0  0  0  0  0  0  0  0  0
  -17.5548  -26.1198  -35.9126 H   0  0  0  0  0  0  0  0  0  0  0  0
   -8.5816  -26.5726  -33.5152 H   0  0  0  0  0  0  0  0  0  0  0  0
   -8.4442  -27.2922  -35.1179 H   0  0  0  0  0  0  0  0  0  0  0  0
  -10.2749  -28.8307  -35.9882 H   0  0  0  0  0  0  0  0  0  0  0  0
  -11.6791  -29.1889  -34.9864 H   0  0  0  0  0  0  0  0  0  0  0  0
  -11.8794  -28.1415  -32.6522 H   0  0  0  0  0  0  0  0  0  0  0  0
  -10.6119  -27.0692  -32.0626 H   0  0  0  0  0  0  0  0  0  0  0  0
  -11.1674  -25.2600  -36.7071 H   0  0  0  0  0  0  0  0  0  0  0  0
   -9.9781  -26.5235  -36.9954 H   0  0  0  0  0  0  0  0  0  0  0  0
  -10.3144  -24.7638  -33.0745 H   0  0  0  0  0  0  0  0  0  0  0  0
  -11.3674  -24.2112  -34.3703 H   0  0  0  0  0  0  0  0  0  0  0  0
   -9.6590  -28.8245  -33.5665 H   0  0  0  0  0  0  0  0  0  0  0  0
   -9.1536  -24.9043  -35.2818 H   0  0  0  0  0  0  0  0  0  0  0  0
  -12.2493  -27.5157  -36.7563 H   0  0  0  0  0  0  0  0  0  0  0  0
  -12.5874  -25.7473  -32.8168 H   0  0  0  0  0  0  0  0  0  0  0  0
  -13.3833  -27.4375  -34.5075 H   0  0  0  0  0  0  0  0  0  0  0  0
  -14.8151  -23.8030  -36.2029 H   0  0  0  0  0  0  0  0  0  0  0  0
  -13.1857  -24.6426  -35.3235 H   0  0  0  0  0  0  0  0  0  0  0  0
  1  6  1  0  0  0  0
  1 19  3  0  0  0  0
  2  4  1  0  0  0  0
  2  6  2  0  0  0  0
  3  5  2  0  0  0  0
  3  6  1  0  0  0  0
  4  7  2  0  0  0  0
  5  7  1  0  0  0  0
  7 20  1  0  0  0  0
  8 20  1  0  0  0  0
  8 21  1  0  0  0  0
  8 22  2  0  0  0  0
  9 14  1  0  0  0  0
  9 15  1  0  0  0  0
 10 14  1  0  0  0  0
 10 16  1  0  0  0  0
 11 14  1  0  0  0  0
 11 17  1  0  0  0  0
 12 15  1  0  0  0  0
 12 16  1  0  0  0  0
 13 15  1  0  0  0  0
 13 17  1  0  0  0  0
 16 18  1  0  0  0  0
 17 18  1  0  0  0  0
 18 21  1  0  0  0  0
  2 23  1  0  0  0  0
  3 24  1  0  0  0  0
  4 25  1  0  0  0  0
  5 26  1  0  0  0  0
  9 27  1  0  0  0  0
  9 28  1  0  0  0  0
 10 29  1  0  0  0  0
 10 30  1  0  0  0  0
 11 31  1  0  0  0  0
 11 32  1  0  0  0  0
 12 33  1  0  0  0  0
 12 34  1  0  0  0  0
 13 35  1  0  0  0  0
 13 36  1  0  0  0  0
 14 37  1  0  0  0  0
 15 38  1  0  0  0  0
 16 39  1  0  0  0  0
 17 40  1  0  0  0  0
 18 41  1  0  0  0  0
 20 42  1  0  0  0  0
 21 43  1  0  0  0  0
M  END
> <Name>
A_99

> <SourceTag>
A_99

> <Gold.Version>
5.2

> <Gold.Id.Protein>
6HGV|6HGV_protein|mol2

> <Gold.Goldscore.Fitness>
54.2959

> <Gold.Goldscore.Internal.Vdw>
-2.2812

> <Gold.Goldscore.Internal.Torsion>
-2.2870

> <Gold.Goldscore.External.Vdw>
39.1335

> <Gold.Goldscore.Internal.HBond>
0.0000

> <Gold.Goldscore.External.HBond>
1.9166

> <Gold.Goldscore.Internal.Correction>
-3.1391

> <Gold.Goldscore.Hbonds>
donor molecule, donor type, donor heavy atom, donor atom, acceptor molecule, acceptor atom, score
      L1  H    20    42       P1   853  0.24
      L1  H    21    43       P1   853  0.08

> <Gold.Goldscore.Internal.Vdw.Weighted>
-2.2812

> <Gold.Goldscore.Internal.Torsion.Weighted>
-2.2870

> <Gold.Goldscore.External.Vdw.Weighted>
53.8085

> <Gold.Goldscore.Internal.HBond.Weighted>
0.0000

> <Gold.Goldscore.External.HBond.Weighted>
1.9166

> <Gold.Goldscore.Internal.Correction.Weighted>
-3.1391

> <Gold.Protein.RotatedTorsions>
[ 3781 1176 1175 1172 ] final  -79.64 input   60.00 | X-H torsion
[ 3847 1247 1246 1244 ] final   93.80 input   60.00 | X-H torsion
[ 4507 1931 1930 1928 ] final   13.25 input   60.00 | X-H torsion
[ 3677 1070 1069 1066 ] final  -72.94 input   60.00 | X-H torsion
[ 3525  925  924  922 ] final  -10.05 input   59.99 | X-H torsion
[ 4531 1957 1955 1953 ] final  125.60 input   60.00 | X-H torsion

> <Gold.Protein.ActiveResidues>
 PHE267  PRO268  MET310  ASP335  TRP336  MET339  TYR343  THR360  PRO361  ILE363 
 PRO371  SER374  ILE375  ASN378  PHE381  TYR383  GLN384  PHE387  LEU408  LEU417 
 MET419  LEU428  TYR466  MET469  ASN472  ASP496  VAL498  LEU499  MET503  HIS524 
 TRP525 

> <Gold.Protein.RotatedAtoms>
   -3.6774  -29.5238  -30.3343 H   0  0  0  0  0  0  0  0  0  0  0  0  # atno 3525 bound_to 925 
  -12.1378  -23.8456  -31.2709 H   0  0  0  0  0  0  0  0  0  0  0  0  # atno 3677 bound_to 1070
   -9.9621  -36.5087  -34.1220 H   0  0  0  0  0  0  0  0  0  0  0  0  # atno 3781 bound_to 1176
  -14.4470  -28.6460  -37.5781 H   0  0  0  0  0  0  0  0  0  0  0  0  # atno 3847 bound_to 1247
  -13.1138  -25.2187  -38.9552 H   0  0  0  0  0  0  0  0  0  0  0  0  # atno 4507 bound_to 1931
   -2.2901  -34.0610  -36.8238 H   0  0  0  0  0  0  0  0  0  0  0  0  # atno 4531 bound_to 1957
   -9.3851  -36.6868  -32.6108 LP  0  0  0  0  0  0  0  0  0  0  0  0  # atno 5205 bound_to 1176
  -10.7640  -37.4402  -33.0555 LP  0  0  0  0  0  0  0  0  0  0  0  0  # atno 5206 bound_to 1176
  -15.9727  -28.3832  -37.0771 LP  0  0  0  0  0  0  0  0  0  0  0  0  # atno 5215 bound_to 1247
  -15.1499  -27.2040  -37.8511 LP  0  0  0  0  0  0  0  0  0  0  0  0  # atno 5216 bound_to 1247
  -13.5901  -24.6749  -40.4131 LP  0  0  0  0  0  0  0  0  0  0  0  0  # atno 5217 bound_to 1931
  -12.4906  -23.8360  -39.5448 LP  0  0  0  0  0  0  0  0  0  0  0  0  # atno 5218 bound_to 1931
  -11.1246  -22.5902  -31.0571 LP  0  0  0  0  0  0  0  0  0  0  0  0  # atno 5224 bound_to 1070
  -12.5904  -22.5918  -30.3374 LP  0  0  0  0  0  0  0  0  0  0  0  0  # atno 5225 bound_to 1070

$$$$
A_38|SEH_inhibs_minimized|sdf|28|dock6
  -GOLD-   41821 9483D 1   1.00000     0.00000

 52 54  0  0  0  0  0  0  0  0  1 V2000
  -16.0998  -24.0736  -38.0113 C   0  0  0  0  0  0  0  0  0  0  0  0
  -17.2163  -25.8151  -36.7631 C   0  0  0  0  0  0  0  0  0  0  0  0
   -9.5456  -31.8596  -35.4221 C   0  0  0  0  0  0  0  0  0  0  0  0
  -15.0323  -24.1151  -37.1145 C   0  0  0  0  0  0  0  0  0  0  0  0
  -16.1487  -25.8567  -35.8663 C   0  0  0  0  0  0  0  0  0  0  0  0
   -9.3211  -32.9698  -36.2361 C   0  0  0  0  0  0  0  0  0  0  0  0
   -6.9422  -32.5585  -36.1413 C   0  0  0  0  0  0  0  0  0  0  0  0
  -17.1918  -24.9236  -37.8357 C   0  0  0  0  0  0  0  0  0  0  0  0
   -8.4684  -31.0985  -34.9681 C   0  0  0  0  0  0  0  0  0  0  0  0
  -15.0568  -25.0068  -36.0421 C   0  0  0  0  0  0  0  0  0  0  0  0
   -8.0193  -33.3194  -36.5956 C   0  0  0  0  0  0  0  0  0  0  0  0
   -7.1666  -31.4480  -35.3275 C   0  0  0  0  0  0  0  0  0  0  0  0
  -18.3035  -24.8819  -38.7722 C   0  0  0  0  0  0  0  0  0  0  0  0
   -9.3086  -27.5897  -34.7682 C   0  0  0  0  0  0  0  0  0  0  0  0
  -11.6560  -24.9128  -34.6962 C   0  0  0  0  0  0  0  0  0  0  0  0
  -12.6206  -26.8312  -36.0198 C   0  0  0  0  0  0  0  0  0  0  0  0
  -10.2624  -25.3347  -35.1538 C   0  0  0  0  0  0  0  0  0  0  0  0
  -11.2061  -27.1993  -36.4563 C   0  0  0  0  0  0  0  0  0  0  0  0
  -12.7258  -25.3368  -35.7041 C   0  0  0  0  0  0  0  0  0  0  0  0
  -20.7928  -24.7256  -39.0258 C   0  0  0  0  0  0  0  0  0  0  0  0
   -8.7525  -29.9119  -34.0931 C   0  0  0  0  0  0  0  0  0  0  0  0
  -10.2321  -26.7724  -35.4401 N   0  0  0  0  0  0  0  0  0  0  0  0
  -19.5875  -24.7578  -38.2289 N   0  0  0  0  0  0  0  0  0  0  0  0
   -9.6058  -28.9468  -34.7502 N   0  0  0  0  0  0  0  0  0  0  0  0
  -18.1019  -24.9749  -39.9960 O   0  0  0  0  0  0  0  0  0  0  0  0
   -8.2953  -27.1422  -34.2202 O   0  0  0  0  0  0  0  0  0  0  0  0
  -14.0084  -25.0477  -35.1610 O   0  0  0  0  0  0  0  0  0  0  0  0
   -7.7434  -34.6893  -37.6000 Cl  0  0  0  0  0  0  0  0  0  0  0  0
   -5.8091  -30.5303  -34.7843 Cl  0  0  0  0  0  0  0  0  0  0  0  0
  -16.0702  -23.3754  -38.8439 H   0  0  0  0  0  0  0  0  0  0  0  0
  -18.0619  -26.4822  -36.6174 H   0  0  0  0  0  0  0  0  0  0  0  0
  -10.5637  -31.5960  -35.1478 H   0  0  0  0  0  0  0  0  0  0  0  0
  -14.1848  -23.4500  -37.2571 H   0  0  0  0  0  0  0  0  0  0  0  0
  -16.1739  -26.5545  -35.0338 H   0  0  0  0  0  0  0  0  0  0  0  0
  -10.1702  -33.5537  -36.5825 H   0  0  0  0  0  0  0  0  0  0  0  0
   -5.9274  -32.8328  -36.4219 H   0  0  0  0  0  0  0  0  0  0  0  0
  -11.8783  -25.3620  -33.7191 H   0  0  0  0  0  0  0  0  0  0  0  0
  -11.6942  -23.8277  -34.5446 H   0  0  0  0  0  0  0  0  0  0  0  0
  -13.3408  -27.0984  -36.8018 H   0  0  0  0  0  0  0  0  0  0  0  0
  -12.9035  -27.4144  -35.1337 H   0  0  0  0  0  0  0  0  0  0  0  0
   -9.9811  -24.8079  -36.0731 H   0  0  0  0  0  0  0  0  0  0  0  0
   -9.5289  -25.0703  -34.3860 H   0  0  0  0  0  0  0  0  0  0  0  0
  -11.1486  -28.2641  -36.6809 H   0  0  0  0  0  0  0  0  0  0  0  0
  -10.9500  -26.6738  -37.3848 H   0  0  0  0  0  0  0  0  0  0  0  0
  -12.6111  -24.7523  -36.6249 H   0  0  0  0  0  0  0  0  0  0  0  0
  -21.1909  -25.7396  -39.1007 H   0  0  0  0  0  0  0  0  0  0  0  0
  -20.5481  -24.3427  -40.0189 H   0  0  0  0  0  0  0  0  0  0  0  0
  -21.5190  -24.0705  -38.5401 H   0  0  0  0  0  0  0  0  0  0  0  0
   -9.2475  -30.2245  -33.1673 H   0  0  0  0  0  0  0  0  0  0  0  0
   -7.8260  -29.4014  -33.8101 H   0  0  0  0  0  0  0  0  0  0  0  0
  -19.7006  -24.7489  -37.2205 H   0  0  0  0  0  0  0  0  0  0  0  0
  -10.4456  -29.2701  -35.2114 H   0  0  0  0  0  0  0  0  0  0  0  0
  1  4  1  0  0  0  0
  1  8  2  0  0  0  0
  2  5  2  0  0  0  0
  2  8  1  0  0  0  0
  3  6  1  0  0  0  0
  3  9  2  0  0  0  0
  4 10  2  0  0  0  0
  5 10  1  0  0  0  0
  6 11  2  0  0  0  0
  7 11  1  0  0  0  0
  7 12  2  0  0  0  0
  8 13  1  0  0  0  0
  9 12  1  0  0  0  0
  9 21  1  0  0  0  0
 10 27  1  0  0  0  0
 11 28  1  0  0  0  0
 12 29  1  0  0  0  0
 13 23  1  0  0  0  0
 13 25  2  0  0  0  0
 14 22  1  0  0  0  0
 14 24  1  0  0  0  0
 14 26  2  0  0  0  0
 15 17  1  0  0  0  0
 15 19  1  0  0  0  0
 16 18  1  0  0  0  0
 16 19  1  0  0  0  0
 17 22  1  0  0  0  0
 18 22  1  0  0  0  0
 19 27  1  0  0  0  0
 20 23  1  0  0  0  0
 21 24  1  0  0  0  0
  1 30  1  0  0  0  0
  2 31  1  0  0  0  0
  3 32  1  0  0  0  0
  4 33  1  0  0  0  0
  5 34  1  0  0  0  0
  6 35  1  0  0  0  0
  7 36  1  0  0  0  0
 15 37  1  0  0  0  0
 15 38  1  0  0  0  0
 16 39  1  0  0  0  0
 16 40  1  0  0  0  0
 17 41  1  0  0  0  0
 17 42  1  0  0  0  0
 18 43  1  0  0  0  0
 18 44  1  0  0  0  0
 19 45  1  0  0  0  0
 20 46  1  0  0  0  0
 20 47  1  0  0  0  0
 20 48  1  0  0  0  0
 21 49  1  0  0  0  0
 21 50  1  0  0  0  0
 23 51  1  0  0  0  0
 24 52  1  0  0  0  0
M  END
> <Name>
A_38

> <SourceTag>
A_38

> <Gold.Version>
5.2

> <Gold.Id.Protein>
6HGV|6HGV_protein|mol2

> <Gold.Goldscore.Fitness>
62.9360

> <Gold.Goldscore.Internal.Vdw>
-12.2756

> <Gold.Goldscore.Internal.Torsion>
-10.9185

> <Gold.Goldscore.External.Vdw>
50.0181

> <Gold.Goldscore.Internal.HBond>
0.0000

> <Gold.Goldscore.External.HBond>
0.0000

> <Gold.Goldscore.Internal.Correction>
-17.3552

> <Gold.Goldscore.Internal.Vdw.Weighted>
-12.2756

> <Gold.Goldscore.Internal.Torsion.Weighted>
-10.9185

> <Gold.Goldscore.External.Vdw.Weighted>
68.7749

> <Gold.Goldscore.Internal.HBond.Weighted>
0.0000

> <Gold.Goldscore.External.HBond.Weighted>
0.0000

> <Gold.Goldscore.Internal.Correction.Weighted>
-17.3552

> <Gold.Protein.RotatedTorsions>
[ 3781 1176 1175 1172 ] final -161.30 input   60.00 | X-H torsion
[ 3847 1247 1246 1244 ] final   16.20 input   60.00 | X-H torsion
[ 4507 1931 1930 1928 ] final  -15.44 input   60.00 | X-H torsion
[ 3677 1070 1069 1066 ] final -147.89 input   60.00 | X-H torsion
[ 3525  925  924  922 ] final   44.37 input   59.99 | X-H torsion
[ 4531 1957 1955 1953 ] final   -0.11 input   60.00 | X-H torsion

> <Gold.Protein.ActiveResidues>
 PHE267  PRO268  MET310  ASP335  TRP336  MET339  TYR343  THR360  PRO361  ILE363 
 PRO371  SER374  ILE375  ASN378  PHE381  TYR383  GLN384  PHE387  LEU408  LEU417 
 MET419  LEU428  TYR466  MET469  ASN472  ASP496  VAL498  LEU499  MET503  HIS524 
 TRP525 

> <Gold.Protein.RotatedAtoms>
   -3.0387  -29.7546  -30.8556 H   0  0  0  0  0  0  0  0  0  0  0  0  # atno 3525 bound_to 925 
  -11.1877  -23.2274  -31.3860 H   0  0  0  0  0  0  0  0  0  0  0  0  # atno 3677 bound_to 1070
   -9.2432  -36.3979  -33.1372 H   0  0  0  0  0  0  0  0  0  0  0  0  # atno 3781 bound_to 1176
  -15.4901  -28.8615  -37.0863 H   0  0  0  0  0  0  0  0  0  0  0  0  # atno 3847 bound_to 1247
  -13.4102  -25.3711  -39.2778 H   0  0  0  0  0  0  0  0  0  0  0  0  # atno 4507 bound_to 1931
   -2.8558  -32.4994  -36.6892 H   0  0  0  0  0  0  0  0  0  0  0  0  # atno 4531 bound_to 1957
  -10.4005  -37.3842  -32.5575 LP  0  0  0  0  0  0  0  0  0  0  0  0  # atno 5205 bound_to 1176
  -10.4727  -36.8544  -34.1005 LP  0  0  0  0  0  0  0  0  0  0  0  0  # atno 5206 bound_to 1176
  -15.7562  -27.3293  -37.5652 LP  0  0  0  0  0  0  0  0  0  0  0  0  # atno 5215 bound_to 1247
  -14.3160  -28.0409  -37.8583 LP  0  0  0  0  0  0  0  0  0  0  0  0  # atno 5216 bound_to 1247
  -13.3524  -24.2788  -40.4827 LP  0  0  0  0  0  0  0  0  0  0  0  0  # atno 5217 bound_to 1931
  -12.4297  -24.0786  -39.1503 LP  0  0  0  0  0  0  0  0  0  0  0  0  # atno 5218 bound_to 1931
  -11.9880  -22.1999  -30.4103 LP  0  0  0  0  0  0  0  0  0  0  0  0  # atno 5224 bound_to 1070
  -12.6837  -23.6046  -30.8683 LP  0  0  0  0  0  0  0  0  0  0  0  0  # atno 5225 bound_to 1070

$$$$
A_105|SEH_inhibs_minimized|sdf|7|dock5
  -GOLD-   41821 9 53D 1   1.00000     0.00000

 51 54  0  0  0  0  0  0  0  0  1 V2000
   -7.1589  -30.8492  -35.4416 C   0  0  0  0  0  0  0  0  0  0  0  0
   -9.2231  -32.0925  -35.2672 C   0  0  0  0  0  0  0  0  0  0  0  0
  -17.8590  -24.5393  -39.5349 C   0  0  0  0  0  0  0  0  0  0  0  0
   -7.8670  -29.6548  -35.3086 C   0  0  0  0  0  0  0  0  0  0  0  0
   -9.9312  -30.8981  -35.1341 C   0  0  0  0  0  0  0  0  0  0  0  0
  -16.4631  -24.6273  -39.5011 C   0  0  0  0  0  0  0  0  0  0  0  0
  -18.0206  -24.7876  -37.1105 C   0  0  0  0  0  0  0  0  0  0  0  0
   -7.8369  -32.0681  -35.4211 C   0  0  0  0  0  0  0  0  0  0  0  0
  -18.6244  -24.6175  -38.3649 C   0  0  0  0  0  0  0  0  0  0  0  0
  -16.6223  -24.8779  -37.0593 C   0  0  0  0  0  0  0  0  0  0  0  0
   -9.2531  -29.6793  -35.1548 C   0  0  0  0  0  0  0  0  0  0  0  0
  -15.9016  -24.7957  -38.2415 C   0  0  0  0  0  0  0  0  0  0  0  0
  -14.5768  -25.0534  -36.5761 C   0  0  0  0  0  0  0  0  0  0  0  0
   -7.0986  -33.3132  -35.5599 C   0  0  0  0  0  0  0  0  0  0  0  0
  -12.8801  -26.2400  -35.1487 C   0  0  0  0  0  0  0  0  0  0  0  0
  -10.4735  -26.2096  -35.8331 C   0  0  0  0  0  0  0  0  0  0  0  0
  -11.1385  -26.9316  -33.5101 C   0  0  0  0  0  0  0  0  0  0  0  0
  -10.2525  -27.6757  -36.2114 C   0  0  0  0  0  0  0  0  0  0  0  0
  -10.9355  -28.3887  -33.9246 C   0  0  0  0  0  0  0  0  0  0  0  0
  -11.4683  -26.0196  -34.6901 C   0  0  0  0  0  0  0  0  0  0  0  0
  -20.1121  -24.5184  -38.4521 C   0  0  0  0  0  0  0  0  0  0  0  0
   -5.6747  -33.3318  -35.0851 C   0  0  0  0  0  0  0  0  0  0  0  0
  -15.7600  -25.0428  -36.0026 N   0  0  0  0  0  0  0  0  0  0  0  0
   -9.9638  -28.4806  -35.0212 N   0  0  0  0  0  0  0  0  0  0  0  0
  -13.3126  -25.1960  -35.9567 N   0  0  0  0  0  0  0  0  0  0  0  0
   -7.5518  -34.3533  -36.0423 O   0  0  0  0  0  0  0  0  0  0  0  0
  -13.5011  -27.2424  -34.8106 O   0  0  0  0  0  0  0  0  0  0  0  0
  -14.5767  -24.9091  -37.9309 O   0  0  0  0  0  0  0  0  0  0  0  0
   -6.0789  -30.8186  -35.5609 H   0  0  0  0  0  0  0  0  0  0  0  0
   -9.7616  -33.0366  -35.2498 H   0  0  0  0  0  0  0  0  0  0  0  0
  -18.3510  -24.4071  -40.4965 H   0  0  0  0  0  0  0  0  0  0  0  0
   -7.3286  -28.7106  -35.3260 H   0  0  0  0  0  0  0  0  0  0  0  0
  -11.0112  -30.9286  -35.0148 H   0  0  0  0  0  0  0  0  0  0  0  0
  -15.8624  -24.5681  -40.4000 H   0  0  0  0  0  0  0  0  0  0  0  0
  -18.6163  -24.8479  -36.2049 H   0  0  0  0  0  0  0  0  0  0  0  0
   -9.5097  -25.7830  -35.5247 H   0  0  0  0  0  0  0  0  0  0  0  0
  -10.7950  -25.6529  -36.7217 H   0  0  0  0  0  0  0  0  0  0  0  0
  -11.9285  -26.8790  -32.7515 H   0  0  0  0  0  0  0  0  0  0  0  0
  -10.2168  -26.5693  -33.0363 H   0  0  0  0  0  0  0  0  0  0  0  0
  -11.1418  -28.0685  -36.7210 H   0  0  0  0  0  0  0  0  0  0  0  0
   -9.4171  -27.7311  -36.9209 H   0  0  0  0  0  0  0  0  0  0  0  0
  -10.5752  -28.9498  -33.0528 H   0  0  0  0  0  0  0  0  0  0  0  0
  -11.8886  -28.8386  -34.2290 H   0  0  0  0  0  0  0  0  0  0  0  0
  -11.4252  -24.9783  -34.3490 H   0  0  0  0  0  0  0  0  0  0  0  0
  -20.4243  -23.4678  -38.4375 H   0  0  0  0  0  0  0  0  0  0  0  0
  -20.4868  -24.9818  -39.3730 H   0  0  0  0  0  0  0  0  0  0  0  0
  -20.5936  -25.0380  -37.6144 H   0  0  0  0  0  0  0  0  0  0  0  0
   -5.2959  -34.3386  -34.8483 H   0  0  0  0  0  0  0  0  0  0  0  0
   -5.5048  -32.6986  -34.2005 H   0  0  0  0  0  0  0  0  0  0  0  0
   -4.9597  -32.9527  -35.8369 H   0  0  0  0  0  0  0  0  0  0  0  0
  -12.6535  -24.4404  -36.1320 H   0  0  0  0  0  0  0  0  0  0  0  0
  1  4  1  0  0  0  0
  1  8  2  0  0  0  0
  2  5  2  0  0  0  0
  2  8  1  0  0  0  0
  3  6  1  0  0  0  0
  3  9  2  0  0  0  0
  4 11  2  0  0  0  0
  5 11  1  0  0  0  0
  6 12  2  0  0  0  0
  7  9  1  0  0  0  0
  7 10  2  0  0  0  0
  8 14  1  0  0  0  0
  9 21  1  0  0  0  0
 10 12  1  0  0  0  0
 10 23  1  0  0  0  0
 11 24  1  0  0  0  0
 12 28  1  0  0  0  0
 13 23  2  0  0  0  0
 13 25  1  0  0  0  0
 13 28  1  0  0  0  0
 14 22  1  0  0  0  0
 14 26  2  0  0  0  0
 15 20  1  0  0  0  0
 15 25  1  0  0  0  0
 15 27  2  0  0  0  0
 16 18  1  0  0  0  0
 16 20  1  0  0  0  0
 17 19  1  0  0  0  0
 17 20  1  0  0  0  0
 18 24  1  0  0  0  0
 19 24  1  0  0  0  0
  1 29  1  0  0  0  0
  2 30  1  0  0  0  0
  3 31  1  0  0  0  0
  4 32  1  0  0  0  0
  5 33  1  0  0  0  0
  6 34  1  0  0  0  0
  7 35  1  0  0  0  0
 16 36  1  0  0  0  0
 16 37  1  0  0  0  0
 17 38  1  0  0  0  0
 17 39  1  0  0  0  0
 18 40  1  0  0  0  0
 18 41  1  0  0  0  0
 19 42  1  0  0  0  0
 19 43  1  0  0  0  0
 20 44  1  0  0  0  0
 21 45  1  0  0  0  0
 21 46  1  0  0  0  0
 21 47  1  0  0  0  0
 22 48  1  0  0  0  0
 22 49  1  0  0  0  0
 22 50  1  0  0  0  0
 25 51  1  0  0  0  0
M  END
> <Name>
A_105

> <SourceTag>
A_105

> <Gold.Version>
5.2

> <Gold.Id.Protein>
6HGV|6HGV_protein|mol2

> <Gold.Goldscore.Fitness>
67.8598

> <Gold.Goldscore.Internal.Vdw>
-0.9939

> <Gold.Goldscore.Internal.Torsion>
-8.5524

> <Gold.Goldscore.External.Vdw>
48.2090

> <Gold.Goldscore.Internal.HBond>
0.0000

> <Gold.Goldscore.External.HBond>
2.2387

> <Gold.Goldscore.Internal.Correction>
-8.8800

> <Gold.Goldscore.Hbonds>
donor molecule, donor type, donor heavy atom, donor atom, acceptor molecule, acceptor atom, score
      P1  H  1247  3847       L1    28  1.00
      P1  H  1931  4507       L1    28  0.08
      L1  H    25    51       P1   854  0.01

> <Gold.Goldscore.Internal.Vdw.Weighted>
-0.9939

> <Gold.Goldscore.Internal.Torsion.Weighted>
-8.5524

> <Gold.Goldscore.External.Vdw.Weighted>
66.2874

> <Gold.Goldscore.Internal.HBond.Weighted>
0.0000

> <Gold.Goldscore.External.HBond.Weighted>
2.2387

> <Gold.Goldscore.Internal.Correction.Weighted>
-8.8800

> <Gold.Protein.RotatedTorsions>
[ 3781 1176 1175 1172 ] final -114.85 input   60.00 | X-H torsion
[ 3847 1247 1246 1244 ] final -152.07 input   60.00 | X-H torsion
[ 4507 1931 1930 1928 ] final    0.90 input   60.00 | X-H torsion
[ 3677 1070 1069 1066 ] final -100.48 input   60.00 | X-H torsion
[ 3525  925  924  922 ] final   65.13 input   59.99 | X-H torsion
[ 4531 1957 1955 1953 ] final  -21.18 input   60.00 | X-H torsion

> <Gold.Protein.ActiveResidues>
 PHE267  PRO268  MET310  ASP335  TRP336  MET339  TYR343  THR360  PRO361  ILE363 
 PRO371  SER374  ILE375  ASN378  PHE381  TYR383  GLN384  PHE387  LEU408  LEU417 
 MET419  LEU428  TYR466  MET469  ASN472  ASP496  VAL498  LEU499  MET503  HIS524 
 TRP525 

> <Gold.Protein.RotatedAtoms>
   -2.7293  -29.8894  -30.8560 H   0  0  0  0  0  0  0  0  0  0  0  0  # atno 3525 bound_to 925 
  -11.7279  -23.7506  -31.4183 H   0  0  0  0  0  0  0  0  0  0  0  0  # atno 3677 bound_to 1070
   -9.5198  -36.3274  -33.8182 H   0  0  0  0  0  0  0  0  0  0  0  0  # atno 3781 bound_to 1176
  -15.0614  -27.2311  -37.8782 H   0  0  0  0  0  0  0  0  0  0  0  0  # atno 3847 bound_to 1247
  -13.2474  -25.3068  -39.0774 H   0  0  0  0  0  0  0  0  0  0  0  0  # atno 4507 bound_to 1931
   -2.5865  -32.2933  -36.7369 H   0  0  0  0  0  0  0  0  0  0  0  0  # atno 4531 bound_to 1957
   -9.7712  -37.0332  -32.3737 LP  0  0  0  0  0  0  0  0  0  0  0  0  # atno 5205 bound_to 1176
  -10.8234  -37.2764  -33.5985 LP  0  0  0  0  0  0  0  0  0  0  0  0  # atno 5206 bound_to 1176
  -14.4934  -28.7158  -37.5305 LP  0  0  0  0  0  0  0  0  0  0  0  0  # atno 5215 bound_to 1247
  -16.0105  -28.2962  -37.0955 LP  0  0  0  0  0  0  0  0  0  0  0  0  # atno 5216 bound_to 1247
  -13.5008  -24.5015  -40.4686 LP  0  0  0  0  0  0  0  0  0  0  0  0  # atno 5217 bound_to 1931
  -12.4453  -23.9207  -39.3662 LP  0  0  0  0  0  0  0  0  0  0  0  0  # atno 5218 bound_to 1931
  -11.3386  -22.3019  -30.7877 LP  0  0  0  0  0  0  0  0  0  0  0  0  # atno 5224 bound_to 1070
  -12.7891  -22.9758  -30.4583 LP  0  0  0  0  0  0  0  0  0  0  0  0  # atno 5225 bound_to 1070

$$$$
A_74|SEH_inhibs_minimized|sdf|45|dock10
  -GOLD-   4182110283D 1   1.00000     0.00000

 46 47  0  0  0  0  0  0  0  0  1 V2000
  -16.7428  -25.7137  -36.7705 C   0  0  0  0  0  0  0  0  0  0  0  0
  -15.4195  -23.8803  -37.6220 C   0  0  0  0  0  0  0  0  0  0  0  0
  -17.7628  -25.3937  -37.6665 C   0  0  0  0  0  0  0  0  0  0  0  0
  -16.4395  -23.5603  -38.5179 C   0  0  0  0  0  0  0  0  0  0  0  0
  -15.5711  -24.9569  -36.7484 C   0  0  0  0  0  0  0  0  0  0  0  0
  -17.6111  -24.3169  -38.5402 C   0  0  0  0  0  0  0  0  0  0  0  0
  -13.1664  -25.0437  -35.9788 C   0  0  0  0  0  0  0  0  0  0  0  0
  -10.3097  -26.1054  -35.8600 C   0  0  0  0  0  0  0  0  0  0  0  0
  -10.5907  -25.9779  -33.3574 C   0  0  0  0  0  0  0  0  0  0  0  0
  -10.3740  -27.6288  -35.7675 C   0  0  0  0  0  0  0  0  0  0  0  0
  -10.6628  -27.5027  -33.3124 C   0  0  0  0  0  0  0  0  0  0  0  0
  -11.0445  -25.4146  -34.7069 C   0  0  0  0  0  0  0  0  0  0  0  0
   -6.9803  -28.7851  -34.5013 C   0  0  0  0  0  0  0  0  0  0  0  0
   -7.9429  -29.7695  -35.1268 C   0  0  0  0  0  0  0  0  0  0  0  0
  -19.8084  -23.4453  -38.8940 C   0  0  0  0  0  0  0  0  0  0  0  0
   -9.8668  -28.0741  -34.4371 N   0  0  0  0  0  0  0  0  0  0  0  0
  -14.5369  -25.2812  -35.8395 N   0  0  0  0  0  0  0  0  0  0  0  0
  -12.4779  -25.5159  -34.8573 N   0  0  0  0  0  0  0  0  0  0  0  0
  -12.6106  -24.5026  -36.9316 O   0  0  0  0  0  0  0  0  0  0  0  0
  -10.4574  -30.4799  -35.1298 O   0  0  0  0  0  0  0  0  0  0  0  0
   -9.3055  -30.0726  -32.9178 O   0  0  0  0  0  0  0  0  0  0  0  0
  -18.6073  -24.0047  -39.4135 O   0  0  0  0  0  0  0  0  0  0  0  0
  -20.6211  -23.0303  -39.8890 F   0  0  0  0  0  0  0  0  0  0  0  0
  -19.4959  -22.3699  -38.1358 F   0  0  0  0  0  0  0  0  0  0  0  0
  -20.4583  -24.3319  -38.1104 F   0  0  0  0  0  0  0  0  0  0  0  0
   -9.5178  -29.7475  -34.3105 S   0  0  0  0  0  0  0  0  0  0  0  0
  -16.8715  -26.5549  -36.0940 H   0  0  0  0  0  0  0  0  0  0  0  0
  -14.5113  -23.2833  -37.6128 H   0  0  0  0  0  0  0  0  0  0  0  0
  -18.6729  -25.9869  -37.6795 H   0  0  0  0  0  0  0  0  0  0  0  0
  -16.3151  -22.7210  -39.1970 H   0  0  0  0  0  0  0  0  0  0  0  0
   -9.2566  -25.7966  -35.8358 H   0  0  0  0  0  0  0  0  0  0  0  0
  -10.7146  -25.7806  -36.8258 H   0  0  0  0  0  0  0  0  0  0  0  0
  -11.1934  -25.5596  -32.5425 H   0  0  0  0  0  0  0  0  0  0  0  0
   -9.5527  -25.6679  -33.1799 H   0  0  0  0  0  0  0  0  0  0  0  0
  -11.3999  -27.9864  -35.9104 H   0  0  0  0  0  0  0  0  0  0  0  0
   -9.7478  -28.0576  -36.5574 H   0  0  0  0  0  0  0  0  0  0  0  0
  -10.2460  -27.8481  -32.3599 H   0  0  0  0  0  0  0  0  0  0  0  0
  -11.7002  -27.8498  -33.3784 H   0  0  0  0  0  0  0  0  0  0  0  0
  -10.8237  -24.3379  -34.7358 H   0  0  0  0  0  0  0  0  0  0  0  0
   -7.3917  -27.7720  -34.5376 H   0  0  0  0  0  0  0  0  0  0  0  0
   -6.7846  -29.0389  -33.4543 H   0  0  0  0  0  0  0  0  0  0  0  0
   -6.0208  -28.7853  -35.0286 H   0  0  0  0  0  0  0  0  0  0  0  0
   -7.5583  -30.7909  -35.0576 H   0  0  0  0  0  0  0  0  0  0  0  0
   -8.1213  -29.5285  -36.1782 H   0  0  0  0  0  0  0  0  0  0  0  0
  -14.8253  -25.7429  -34.9806 H   0  0  0  0  0  0  0  0  0  0  0  0
  -13.0112  -25.9513  -34.1120 H   0  0  0  0  0  0  0  0  0  0  0  0
  1  3  1  0  0  0  0
  1  5  2  0  0  0  0
  2  4  2  0  0  0  0
  2  5  1  0  0  0  0
  3  6  2  0  0  0  0
  4  6  1  0  0  0  0
  5 17  1  0  0  0  0
  6 22  1  0  0  0  0
  7 17  1  0  0  0  0
  7 18  1  0  0  0  0
  7 19  2  0  0  0  0
  8 10  1  0  0  0  0
  8 12  1  0  0  0  0
  9 11  1  0  0  0  0
  9 12  1  0  0  0  0
 10 16  1  0  0  0  0
 11 16  1  0  0  0  0
 12 18  1  0  0  0  0
 13 14  1  0  0  0  0
 14 26  1  0  0  0  0
 15 22  1  0  0  0  0
 15 23  1  0  0  0  0
 15 24  1  0  0  0  0
 15 25  1  0  0  0  0
 16 26  1  0  0  0  0
 20 26  2  0  0  0  0
 21 26  2  0  0  0  0
  1 27  1  0  0  0  0
  2 28  1  0  0  0  0
  3 29  1  0  0  0  0
  4 30  1  0  0  0  0
  8 31  1  0  0  0  0
  8 32  1  0  0  0  0
  9 33  1  0  0  0  0
  9 34  1  0  0  0  0
 10 35  1  0  0  0  0
 10 36  1  0  0  0  0
 11 37  1  0  0  0  0
 11 38  1  0  0  0  0
 12 39  1  0  0  0  0
 13 40  1  0  0  0  0
 13 41  1  0  0  0  0
 13 42  1  0  0  0  0
 14 43  1  0  0  0  0
 14 44  1  0  0  0  0
 17 45  1  0  0  0  0
 18 46  1  0  0  0  0
M  END
> <Name>
A_74

> <SourceTag>
A_74

> <Gold.Version>
5.2

> <Gold.Id.Protein>
6HGV|6HGV_protein|mol2

> <Gold.Goldscore.Fitness>
60.0672

> <Gold.Goldscore.Internal.Vdw>
-0.2566

> <Gold.Goldscore.Internal.Torsion>
-4.8335

> <Gold.Goldscore.External.Vdw>
42.5405

> <Gold.Goldscore.Internal.HBond>
0.0000

> <Gold.Goldscore.External.HBond>
3.2319

> <Gold.Goldscore.Internal.Correction>
-3.4322

> <Gold.Goldscore.Hbonds>
donor molecule, donor type, donor heavy atom, donor atom, acceptor molecule, acceptor atom, score
      P1  H  1256  3854       L1    20  0.64
      P1  H  1931  4507       L1    19  0.97

> <Gold.Goldscore.Internal.Vdw.Weighted>
-0.2566

> <Gold.Goldscore.Internal.Torsion.Weighted>
-4.8335

> <Gold.Goldscore.External.Vdw.Weighted>
58.4932

> <Gold.Goldscore.Internal.HBond.Weighted>
0.0000

> <Gold.Goldscore.External.HBond.Weighted>
3.2319

> <Gold.Goldscore.Internal.Correction.Weighted>
-3.4322

> <Gold.Protein.RotatedTorsions>
[ 3781 1176 1175 1172 ] final  -21.64 input   60.00 | X-H torsion
[ 3847 1247 1246 1244 ] final  168.63 input   60.00 | X-H torsion
[ 4507 1931 1930 1928 ] final   47.43 input   60.00 | X-H torsion
[ 3677 1070 1069 1066 ] final -147.11 input   60.00 | X-H torsion
[ 3525  925  924  922 ] final   -7.64 input   59.99 | X-H torsion
[ 4531 1957 1955 1953 ] final -131.46 input   60.00 | X-H torsion

> <Gold.Protein.ActiveResidues>
 PHE267  PRO268  MET310  ASP335  TRP336  MET339  TYR343  THR360  PRO361  ILE363 
 PRO371  SER374  ILE375  ASN378  PHE381  TYR383  GLN384  PHE387  LEU408  LEU417 
 MET419  LEU428  TYR466  MET469  ASN472  ASP496  VAL498  LEU499  MET503  HIS524 
 TRP525 

> <Gold.Protein.RotatedAtoms>
   -3.6603  -29.5281  -30.3695 H   0  0  0  0  0  0  0  0  0  0  0  0  # atno 3525 bound_to 925 
  -11.1932  -23.2384  -31.3895 H   0  0  0  0  0  0  0  0  0  0  0  0  # atno 3677 bound_to 1070
  -10.6672  -37.0490  -33.9355 H   0  0  0  0  0  0  0  0  0  0  0  0  # atno 3781 bound_to 1176
  -14.5394  -27.5752  -37.9515 H   0  0  0  0  0  0  0  0  0  0  0  0  # atno 3847 bound_to 1247
  -12.7510  -24.8380  -38.7933 H   0  0  0  0  0  0  0  0  0  0  0  0  # atno 4507 bound_to 1931
   -1.2643  -33.0304  -37.0010 H   0  0  0  0  0  0  0  0  0  0  0  0  # atno 4531 bound_to 1957
   -9.2994  -36.3180  -33.4429 LP  0  0  0  0  0  0  0  0  0  0  0  0  # atno 5205 bound_to 1176
  -10.1396  -37.2649  -32.4113 LP  0  0  0  0  0  0  0  0  0  0  0  0  # atno 5206 bound_to 1176
  -14.9981  -28.9637  -37.2375 LP  0  0  0  0  0  0  0  0  0  0  0  0  # atno 5215 bound_to 1247
  -16.0315  -27.7017  -37.3147 LP  0  0  0  0  0  0  0  0  0  0  0  0  # atno 5216 bound_to 1247
  -13.7023  -25.1077  -40.0856 LP  0  0  0  0  0  0  0  0  0  0  0  0  # atno 5217 bound_to 1931
  -12.7437  -23.7866  -40.0353 LP  0  0  0  0  0  0  0  0  0  0  0  0  # atno 5218 bound_to 1931
  -11.9763  -22.1971  -30.4145 LP  0  0  0  0  0  0  0  0  0  0  0  0  # atno 5224 bound_to 1070
  -12.6899  -23.5965  -30.8606 LP  0  0  0  0  0  0  0  0  0  0  0  0  # atno 5225 bound_to 1070

$$$$
A_98|SEH_inhibs_minimized|sdf|57|dock8
  -GOLD-   4182110463D 1   1.00000     0.00000

 39 39  0  0  0  0  0  0  0  0  1 V2000
  -10.1532  -25.4417  -34.9056 C   0  0  0  0  0  0  0  0  0  0  0  0
   -9.1121  -26.2049  -34.3772 C   0  0  0  0  0  0  0  0  0  0  0  0
  -10.8802  -25.9148  -35.9981 C   0  0  0  0  0  0  0  0  0  0  0  0
   -8.7979  -27.4413  -34.9414 C   0  0  0  0  0  0  0  0  0  0  0  0
  -10.5659  -27.1512  -36.5622 C   0  0  0  0  0  0  0  0  0  0  0  0
   -9.5248  -27.9145  -36.0338 C   0  0  0  0  0  0  0  0  0  0  0  0
  -13.0997  -25.5885  -37.1592 C   0  0  0  0  0  0  0  0  0  0  0  0
  -22.6880  -25.1408  -37.3179 C   0  0  0  0  0  0  0  0  0  0  0  0
  -21.3658  -24.7134  -36.7007 C   0  0  0  0  0  0  0  0  0  0  0  0
  -20.1871  -25.0424  -37.6180 C   0  0  0  0  0  0  0  0  0  0  0  0
  -18.8562  -24.6569  -36.9690 C   0  0  0  0  0  0  0  0  0  0  0  0
  -17.6402  -24.9474  -37.8535 C   0  0  0  0  0  0  0  0  0  0  0  0
  -16.3117  -24.5241  -37.2213 C   0  0  0  0  0  0  0  0  0  0  0  0
  -15.1617  -24.6548  -38.2199 C   0  0  0  0  0  0  0  0  0  0  0  0
  -11.9347  -25.1380  -36.5319 N   0  0  0  0  0  0  0  0  0  0  0  0
  -13.8809  -24.5019  -37.5399 N   0  0  0  0  0  0  0  0  0  0  0  0
  -13.4178  -26.7581  -37.3604 O   0  0  0  0  0  0  0  0  0  0  0  0
   -7.7968  -28.1735  -34.4353 F   0  0  0  0  0  0  0  0  0  0  0  0
  -11.2573  -27.6155  -37.6129 F   0  0  0  0  0  0  0  0  0  0  0  0
   -9.2225  -29.1011  -36.5763 F   0  0  0  0  0  0  0  0  0  0  0  0
  -10.3885  -24.4793  -34.4582 H   0  0  0  0  0  0  0  0  0  0  0  0
   -8.5450  -25.8365  -33.5275 H   0  0  0  0  0  0  0  0  0  0  0  0
  -22.6840  -26.2103  -37.5519 H   0  0  0  0  0  0  0  0  0  0  0  0
  -23.5218  -24.9409  -36.6372 H   0  0  0  0  0  0  0  0  0  0  0  0
  -22.8682  -24.5904  -38.2467 H   0  0  0  0  0  0  0  0  0  0  0  0
  -21.3943  -23.6357  -36.5021 H   0  0  0  0  0  0  0  0  0  0  0  0
  -21.2391  -25.2184  -35.7361 H   0  0  0  0  0  0  0  0  0  0  0  0
  -20.3015  -24.5078  -38.5686 H   0  0  0  0  0  0  0  0  0  0  0  0
  -20.1988  -26.1144  -37.8440 H   0  0  0  0  0  0  0  0  0  0  0  0
  -18.8655  -23.5829  -36.7446 H   0  0  0  0  0  0  0  0  0  0  0  0
  -18.7463  -25.1782  -36.0103 H   0  0  0  0  0  0  0  0  0  0  0  0
  -17.6103  -26.0162  -38.0980 H   0  0  0  0  0  0  0  0  0  0  0  0
  -17.7722  -24.4105  -38.8013 H   0  0  0  0  0  0  0  0  0  0  0  0
  -16.3867  -23.4860  -36.8742 H   0  0  0  0  0  0  0  0  0  0  0  0
  -16.1003  -25.1459  -36.3436 H   0  0  0  0  0  0  0  0  0  0  0  0
  -15.1936  -25.6366  -38.7044 H   0  0  0  0  0  0  0  0  0  0  0  0
  -15.2499  -23.8930  -39.0023 H   0  0  0  0  0  0  0  0  0  0  0  0
  -11.8282  -24.1303  -36.4457 H   0  0  0  0  0  0  0  0  0  0  0  0
  -13.5479  -23.5714  -37.3373 H   0  0  0  0  0  0  0  0  0  0  0  0
  1  2  1  0  0  0  0
  1  3  2  0  0  0  0
  2  4  2  0  0  0  0
  3  5  1  0  0  0  0
  3 15  1  0  0  0  0
  4  6  1  0  0  0  0
  4 18  1  0  0  0  0
  5  6  2  0  0  0  0
  5 19  1  0  0  0  0
  6 20  1  0  0  0  0
  7 15  1  0  0  0  0
  7 16  1  0  0  0  0
  7 17  2  0  0  0  0
  8  9  1  0  0  0  0
  9 10  1  0  0  0  0
 10 11  1  0  0  0  0
 11 12  1  0  0  0  0
 12 13  1  0  0  0  0
 13 14  1  0  0  0  0
 14 16  1  0  0  0  0
  1 21  1  0  0  0  0
  2 22  1  0  0  0  0
  8 23  1  0  0  0  0
  8 24  1  0  0  0  0
  8 25  1  0  0  0  0
  9 26  1  0  0  0  0
  9 27  1  0  0  0  0
 10 28  1  0  0  0  0
 10 29  1  0  0  0  0
 11 30  1  0  0  0  0
 11 31  1  0  0  0  0
 12 32  1  0  0  0  0
 12 33  1  0  0  0  0
 13 34  1  0  0  0  0
 13 35  1  0  0  0  0
 14 36  1  0  0  0  0
 14 37  1  0  0  0  0
 15 38  1  0  0  0  0
 16 39  1  0  0  0  0
M  END
> <Name>
A_98

> <SourceTag>
A_98

> <Gold.Version>
5.2

> <Gold.Id.Protein>
6HGV|6HGV_protein|mol2

> <Gold.Goldscore.Fitness>
59.7438

> <Gold.Goldscore.Internal.Vdw>
-3.0775

> <Gold.Goldscore.Internal.Torsion>
-2.6433

> <Gold.Goldscore.External.Vdw>
40.0810

> <Gold.Goldscore.Internal.HBond>
0.0000

> <Gold.Goldscore.External.HBond>
5.4631

> <Gold.Goldscore.Internal.Correction>
-4.8902

> <Gold.Goldscore.Hbonds>
donor molecule, donor type, donor heavy atom, donor atom, acceptor molecule, acceptor atom, score
      P1  H  1247  3847       L1    17  0.20
      L1  H    15    38       P1   854  0.21
      L1  H    16    39       P1   854  0.63

> <Gold.Goldscore.Internal.Vdw.Weighted>
-3.0775

> <Gold.Goldscore.Internal.Torsion.Weighted>
-2.6433

> <Gold.Goldscore.External.Vdw.Weighted>
55.1113

> <Gold.Goldscore.Internal.HBond.Weighted>
0.0000

> <Gold.Goldscore.External.HBond.Weighted>
5.4631

> <Gold.Goldscore.Internal.Correction.Weighted>
-4.8902

> <Gold.Protein.RotatedTorsions>
[ 3781 1176 1175 1172 ] final  -81.44 input   60.00 | X-H torsion
[ 3847 1247 1246 1244 ] final  150.66 input   60.00 | X-H torsion
[ 4507 1931 1930 1928 ] final  143.88 input   60.00 | X-H torsion
[ 3677 1070 1069 1066 ] final -114.41 input   60.00 | X-H torsion
[ 3525  925  924  922 ] final   21.36 input   59.99 | X-H torsion
[ 4531 1957 1955 1953 ] final -170.39 input   60.00 | X-H torsion

> <Gold.Protein.ActiveResidues>
 PHE267  PRO268  MET310  ASP335  TRP336  MET339  TYR343  THR360  PRO361  ILE363 
 PRO371  SER374  ILE375  ASN378  PHE381  TYR383  GLN384  PHE387  LEU408  LEU417 
 MET419  LEU428  TYR466  MET469  ASN472  ASP496  VAL498  LEU499  MET503  HIS524 
 TRP525 

> <Gold.Protein.RotatedAtoms>
   -3.3609  -29.6268  -30.7164 H   0  0  0  0  0  0  0  0  0  0  0  0  # atno 3525 bound_to 925 
  -11.5343  -23.6359  -31.4482 H   0  0  0  0  0  0  0  0  0  0  0  0  # atno 3677 bound_to 1070
   -9.9372  -36.4953  -34.1135 H   0  0  0  0  0  0  0  0  0  0  0  0  # atno 3781 bound_to 1176
  -14.3882  -27.8231  -37.9159 H   0  0  0  0  0  0  0  0  0  0  0  0  # atno 3847 bound_to 1247
  -12.5528  -23.7972  -39.7029 H   0  0  0  0  0  0  0  0  0  0  0  0  # atno 4507 bound_to 1931
   -1.4070  -33.6375  -36.9843 H   0  0  0  0  0  0  0  0  0  0  0  0  # atno 4531 bound_to 1957
   -9.4000  -36.7039  -32.5917 LP  0  0  0  0  0  0  0  0  0  0  0  0  # atno 5205 bound_to 1176
  -10.7742  -37.4366  -33.0832 LP  0  0  0  0  0  0  0  0  0  0  0  0  # atno 5206 bound_to 1176
  -15.2742  -28.9439  -37.1368 LP  0  0  0  0  0  0  0  0  0  0  0  0  # atno 5215 bound_to 1247
  -15.9077  -27.4720  -37.4512 LP  0  0  0  0  0  0  0  0  0  0  0  0  # atno 5216 bound_to 1247
  -12.9979  -25.1216  -38.8687 LP  0  0  0  0  0  0  0  0  0  0  0  0  # atno 5217 bound_to 1931
  -13.6477  -24.8209  -40.3363 LP  0  0  0  0  0  0  0  0  0  0  0  0  # atno 5218 bound_to 1931
  -11.5041  -22.2145  -30.6565 LP  0  0  0  0  0  0  0  0  0  0  0  0  # atno 5224 bound_to 1070
  -12.8185  -23.1787  -30.5594 LP  0  0  0  0  0  0  0  0  0  0  0  0  # atno 5225 bound_to 1070

$$$$
A_81|SEH_inhibs_minimized|sdf|49|dock5
  -GOLD-   4182110373D 1   1.00000     0.00000

 59 61  0  0  0  0  0  0  0  0  1 V2000
  -10.4002  -32.5254  -34.4786 C   0  0  0  0  0  0  0  0  0  0  0  0
  -11.0007  -31.4507  -33.8230 C   0  0  0  0  0  0  0  0  0  0  0  0
   -8.7183  -31.0398  -35.3736 C   0  0  0  0  0  0  0  0  0  0  0  0
   -9.2589  -32.3200  -35.2539 C   0  0  0  0  0  0  0  0  0  0  0  0
   -9.3189  -29.9650  -34.7180 C   0  0  0  0  0  0  0  0  0  0  0  0
  -10.4601  -30.1705  -33.9428 C   0  0  0  0  0  0  0  0  0  0  0  0
  -13.5159  -25.1934  -36.1206 C   0  0  0  0  0  0  0  0  0  0  0  0
  -17.3496  -22.8534  -39.6929 C   0  0  0  0  0  0  0  0  0  0  0  0
  -17.6959  -24.3270  -39.8769 C   0  0  0  0  0  0  0  0  0  0  0  0
  -16.9695  -22.4443  -38.2708 C   0  0  0  0  0  0  0  0  0  0  0  0
  -16.6226  -25.3130  -39.4176 C   0  0  0  0  0  0  0  0  0  0  0  0
  -15.5876  -22.9485  -37.8635 C   0  0  0  0  0  0  0  0  0  0  0  0
  -16.5028  -25.3880  -37.8962 C   0  0  0  0  0  0  0  0  0  0  0  0
  -11.1899  -25.3809  -35.1875 C   0  0  0  0  0  0  0  0  0  0  0  0
  -12.1729  -27.1933  -36.6611 C   0  0  0  0  0  0  0  0  0  0  0  0
  -11.4362  -26.2763  -33.9749 C   0  0  0  0  0  0  0  0  0  0  0  0
  -12.4144  -28.0328  -35.4090 C   0  0  0  0  0  0  0  0  0  0  0  0
  -12.1030  -25.6970  -36.3673 C   0  0  0  0  0  0  0  0  0  0  0  0
  -15.5593  -24.3587  -37.2656 C   0  0  0  0  0  0  0  0  0  0  0  0
   -8.6172  -33.4697  -35.9549 C   0  0  0  0  0  0  0  0  0  0  0  0
   -8.7146  -28.6069  -34.8661 C   0  0  0  0  0  0  0  0  0  0  0  0
  -11.3804  -27.7083  -34.3852 N   0  0  0  0  0  0  0  0  0  0  0  0
  -14.1994  -24.8582  -37.2717 N   0  0  0  0  0  0  0  0  0  0  0  0
  -13.9398  -25.1213  -34.9731 O   0  0  0  0  0  0  0  0  0  0  0  0
  -12.5696  -29.2692  -32.7136 O   0  0  0  0  0  0  0  0  0  0  0  0
  -10.3145  -28.3156  -32.1199 O   0  0  0  0  0  0  0  0  0  0  0  0
  -11.2451  -28.8334  -33.0991 S   0  0  0  0  0  0  0  0  0  0  0  0
  -10.8282  -33.5194  -34.3801 H   0  0  0  0  0  0  0  0  0  0  0  0
  -11.8896  -31.6235  -33.2222 H   0  0  0  0  0  0  0  0  0  0  0  0
   -7.8283  -30.8819  -35.9786 H   0  0  0  0  0  0  0  0  0  0  0  0
  -16.5411  -22.5820  -40.3831 H   0  0  0  0  0  0  0  0  0  0  0  0
  -18.2213  -22.2619  -40.0005 H   0  0  0  0  0  0  0  0  0  0  0  0
  -18.6399  -24.5448  -39.3621 H   0  0  0  0  0  0  0  0  0  0  0  0
  -17.8867  -24.4977  -40.9440 H   0  0  0  0  0  0  0  0  0  0  0  0
  -16.9455  -21.3474  -38.2440 H   0  0  0  0  0  0  0  0  0  0  0  0
  -17.7358  -22.7552  -37.5516 H   0  0  0  0  0  0  0  0  0  0  0  0
  -16.9195  -26.3062  -39.7782 H   0  0  0  0  0  0  0  0  0  0  0  0
  -15.6576  -25.0896  -39.8862 H   0  0  0  0  0  0  0  0  0  0  0  0
  -14.9035  -22.8802  -38.7199 H   0  0  0  0  0  0  0  0  0  0  0  0
  -15.1739  -22.2616  -37.1122 H   0  0  0  0  0  0  0  0  0  0  0  0
  -17.4997  -25.2829  -37.4493 H   0  0  0  0  0  0  0  0  0  0  0  0
  -16.1618  -26.3957  -37.6232 H   0  0  0  0  0  0  0  0  0  0  0  0
  -11.2999  -24.3311  -34.8879 H   0  0  0  0  0  0  0  0  0  0  0  0
  -10.1465  -25.5105  -35.5063 H   0  0  0  0  0  0  0  0  0  0  0  0
  -11.2248  -27.5098  -37.1165 H   0  0  0  0  0  0  0  0  0  0  0  0
  -12.9615  -27.4047  -37.3942 H   0  0  0  0  0  0  0  0  0  0  0  0
  -10.6580  -26.0813  -33.2286 H   0  0  0  0  0  0  0  0  0  0  0  0
  -12.4078  -26.0608  -33.5167 H   0  0  0  0  0  0  0  0  0  0  0  0
  -13.4137  -27.8494  -34.9988 H   0  0  0  0  0  0  0  0  0  0  0  0
  -12.3435  -29.0930  -35.6758 H   0  0  0  0  0  0  0  0  0  0  0  0
  -11.7553  -25.1764  -37.2542 H   0  0  0  0  0  0  0  0  0  0  0  0
  -15.8264  -24.2881  -36.2035 H   0  0  0  0  0  0  0  0  0  0  0  0
   -9.3086  -34.3195  -36.0061 H   0  0  0  0  0  0  0  0  0  0  0  0
   -8.3224  -33.1987  -36.9768 H   0  0  0  0  0  0  0  0  0  0  0  0
   -7.7053  -33.7934  -35.4364 H   0  0  0  0  0  0  0  0  0  0  0  0
   -9.1448  -28.0926  -35.7331 H   0  0  0  0  0  0  0  0  0  0  0  0
   -8.8914  -27.9951  -33.9730 H   0  0  0  0  0  0  0  0  0  0  0  0
   -7.6276  -28.6697  -35.0003 H   0  0  0  0  0  0  0  0  0  0  0  0
  -13.7279  -24.9665  -38.1629 H   0  0  0  0  0  0  0  0  0  0  0  0
  1  2  2  0  0  0  0
  1  4  1  0  0  0  0
  2  6  1  0  0  0  0
  3  4  2  0  0  0  0
  3  5  1  0  0  0  0
  4 20  1  0  0  0  0
  5  6  2  0  0  0  0
  5 21  1  0  0  0  0
  6 27  1  0  0  0  0
  7 18  1  0  0  0  0
  7 23  1  0  0  0  0
  7 24  2  0  0  0  0
  8  9  1  0  0  0  0
  8 10  1  0  0  0  0
  9 11  1  0  0  0  0
 10 12  1  0  0  0  0
 11 13  1  0  0  0  0
 12 19  1  0  0  0  0
 13 19  1  0  0  0  0
 14 16  1  0  0  0  0
 14 18  1  0  0  0  0
 15 17  1  0  0  0  0
 15 18  1  0  0  0  0
 16 22  1  0  0  0  0
 17 22  1  0  0  0  0
 19 23  1  0  0  0  0
 22 27  1  0  0  0  0
 25 27  2  0  0  0  0
 26 27  2  0  0  0  0
  1 28  1  0  0  0  0
  2 29  1  0  0  0  0
  3 30  1  0  0  0  0
  8 31  1  0  0  0  0
  8 32  1  0  0  0  0
  9 33  1  0  0  0  0
  9 34  1  0  0  0  0
 10 35  1  0  0  0  0
 10 36  1  0  0  0  0
 11 37  1  0  0  0  0
 11 38  1  0  0  0  0
 12 39  1  0  0  0  0
 12 40  1  0  0  0  0
 13 41  1  0  0  0  0
 13 42  1  0  0  0  0
 14 43  1  0  0  0  0
 14 44  1  0  0  0  0
 15 45  1  0  0  0  0
 15 46  1  0  0  0  0
 16 47  1  0  0  0  0
 16 48  1  0  0  0  0
 17 49  1  0  0  0  0
 17 50  1  0  0  0  0
 18 51  1  0  0  0  0
 19 52  1  0  0  0  0
 20 53  1  0  0  0  0
 20 54  1  0  0  0  0
 20 55  1  0  0  0  0
 21 56  1  0  0  0  0
 21 57  1  0  0  0  0
 21 58  1  0  0  0  0
 23 59  1  0  0  0  0
M  END
> <Name>
A_81

> <SourceTag>
A_81

> <Gold.Version>
5.2

> <Gold.Id.Protein>
6HGV|6HGV_protein|mol2

> <Gold.Goldscore.Fitness>
65.1399

> <Gold.Goldscore.Internal.Vdw>
-0.4841

> <Gold.Goldscore.Internal.Torsion>
-5.6154

> <Gold.Goldscore.External.Vdw>
46.9876

> <Gold.Goldscore.Internal.HBond>
0.0000

> <Gold.Goldscore.External.HBond>
2.0000

> <Gold.Goldscore.Internal.Correction>
-4.6314

> <Gold.Goldscore.Hbonds>
donor molecule, donor type, donor heavy atom, donor atom, acceptor molecule, acceptor atom, score
      L1  H    23    59       P1  1931  1.00

> <Gold.Goldscore.Internal.Vdw.Weighted>
-0.4841

> <Gold.Goldscore.Internal.Torsion.Weighted>
-5.6154

> <Gold.Goldscore.External.Vdw.Weighted>
64.6080

> <Gold.Goldscore.Internal.HBond.Weighted>
0.0000

> <Gold.Goldscore.External.HBond.Weighted>
2.0000

> <Gold.Goldscore.Internal.Correction.Weighted>
-4.6314

> <Gold.Protein.RotatedTorsions>
[ 3781 1176 1175 1172 ] final -109.27 input   60.00 | X-H torsion
[ 3847 1247 1246 1244 ] final   36.53 input   60.00 | X-H torsion
[ 4507 1931 1930 1928 ] final -149.35 input   60.00 | X-H torsion
[ 3677 1070 1069 1066 ] final  -98.67 input   60.00 | X-H torsion
[ 3525  925  924  922 ] final  -39.44 input   59.99 | X-H torsion
[ 4531 1957 1955 1953 ] final   72.75 input   60.00 | X-H torsion

> <Gold.Protein.ActiveResidues>
 PHE267  PRO268  MET310  ASP335  TRP336  MET339  TYR343  THR360  PRO361  ILE363 
 PRO371  SER374  ILE375  ASN378  PHE381  TYR383  GLN384  PHE387  LEU408  LEU417 
 MET419  LEU428  TYR466  MET469  ASN472  ASP496  VAL498  LEU499  MET503  HIS524 
 TRP525 

> <Gold.Protein.RotatedAtoms>
   -3.7719  -29.5252  -29.8689 H   0  0  0  0  0  0  0  0  0  0  0  0  # atno 3525 bound_to 925 
  -11.7544  -23.7625  -31.4121 H   0  0  0  0  0  0  0  0  0  0  0  0  # atno 3677 bound_to 1070
   -9.5809  -36.3436  -33.8838 H   0  0  0  0  0  0  0  0  0  0  0  0  # atno 3781 bound_to 1176
  -15.1844  -28.9545  -37.1706 H   0  0  0  0  0  0  0  0  0  0  0  0  # atno 3847 bound_to 1247
  -13.2046  -24.1121  -40.4360 H   0  0  0  0  0  0  0  0  0  0  0  0  # atno 4507 bound_to 1931
   -2.9739  -33.6051  -36.6859 H   0  0  0  0  0  0  0  0  0  0  0  0  # atno 4531 bound_to 1957
   -9.6992  -36.9789  -32.3904 LP  0  0  0  0  0  0  0  0  0  0  0  0  # atno 5205 bound_to 1176
  -10.8339  -37.3144  -33.5158 LP  0  0  0  0  0  0  0  0  0  0  0  0  # atno 5206 bound_to 1176
  -15.9566  -27.5415  -37.4054 LP  0  0  0  0  0  0  0  0  0  0  0  0  # atno 5215 bound_to 1247
  -14.4234  -27.7349  -37.9332 LP  0  0  0  0  0  0  0  0  0  0  0  0  # atno 5216 bound_to 1247
  -12.4569  -24.2455  -38.9968 LP  0  0  0  0  0  0  0  0  0  0  0  0  # atno 5217 bound_to 1931
  -13.5322  -25.3798  -39.4697 LP  0  0  0  0  0  0  0  0  0  0  0  0  # atno 5218 bound_to 1931
  -11.3194  -22.3165  -30.8054 LP  0  0  0  0  0  0  0  0  0  0  0  0  # atno 5224 bound_to 1070
  -12.7816  -22.9492  -30.4469 LP  0  0  0  0  0  0  0  0  0  0  0  0  # atno 5225 bound_to 1070

$$$$
A_49|SEH_inhibs_minimized|sdf|35|dock8
  -GOLD-   4182110 03D 1   1.00000     0.00000

 47 48  0  0  0  0  0  0  0  0  1 V2000
   -8.7850  -26.8957  -34.6670 C   0  0  0  0  0  0  0  0  0  0  0  0
  -14.7329  -25.2708  -36.4083 C   0  0  0  0  0  0  0  0  0  0  0  0
  -17.4508  -24.4388  -41.2865 C   0  0  0  0  0  0  0  0  0  0  0  0
  -17.0938  -22.9639  -41.1373 C   0  0  0  0  0  0  0  0  0  0  0  0
  -16.6237  -25.4010  -40.4352 C   0  0  0  0  0  0  0  0  0  0  0  0
  -17.1382  -22.4222  -39.7093 C   0  0  0  0  0  0  0  0  0  0  0  0
  -16.9732  -25.3238  -38.9497 C   0  0  0  0  0  0  0  0  0  0  0  0
  -15.9746  -22.9189  -38.8556 C   0  0  0  0  0  0  0  0  0  0  0  0
  -12.2915  -27.6410  -35.2137 C   0  0  0  0  0  0  0  0  0  0  0  0
  -11.9739  -25.3049  -34.3020 C   0  0  0  0  0  0  0  0  0  0  0  0
  -10.9233  -27.5324  -35.8878 C   0  0  0  0  0  0  0  0  0  0  0  0
  -10.6087  -25.2553  -34.9880 C   0  0  0  0  0  0  0  0  0  0  0  0
  -16.2076  -24.2612  -38.1548 C   0  0  0  0  0  0  0  0  0  0  0  0
  -12.9425  -26.2701  -34.9967 C   0  0  0  0  0  0  0  0  0  0  0  0
   -8.2731  -28.2923  -34.9142 C   0  0  0  0  0  0  0  0  0  0  0  0
  -10.0569  -26.6004  -35.1568 N   0  0  0  0  0  0  0  0  0  0  0  0
  -14.9397  -24.7947  -37.7001 N   0  0  0  0  0  0  0  0  0  0  0  0
  -13.4277  -25.7234  -36.2428 N   0  0  0  0  0  0  0  0  0  0  0  0
   -8.0753  -26.0937  -34.0547 O   0  0  0  0  0  0  0  0  0  0  0  0
  -15.5916  -25.2898  -35.5274 O   0  0  0  0  0  0  0  0  0  0  0  0
  -18.5171  -24.5776  -41.0681 H   0  0  0  0  0  0  0  0  0  0  0  0
  -17.3202  -24.7122  -42.3412 H   0  0  0  0  0  0  0  0  0  0  0  0
  -16.1006  -22.7859  -41.5683 H   0  0  0  0  0  0  0  0  0  0  0  0
  -17.7970  -22.3836  -41.7481 H   0  0  0  0  0  0  0  0  0  0  0  0
  -16.8538  -26.4174  -40.7797 H   0  0  0  0  0  0  0  0  0  0  0  0
  -15.5511  -25.2521  -40.6032 H   0  0  0  0  0  0  0  0  0  0  0  0
  -17.0616  -21.3292  -39.7741 H   0  0  0  0  0  0  0  0  0  0  0  0
  -18.1021  -22.6375  -39.2345 H   0  0  0  0  0  0  0  0  0  0  0  0
  -18.0506  -25.1440  -38.8414 H   0  0  0  0  0  0  0  0  0  0  0  0
  -16.7950  -26.3091  -38.4991 H   0  0  0  0  0  0  0  0  0  0  0  0
  -15.0614  -22.9566  -39.4647 H   0  0  0  0  0  0  0  0  0  0  0  0
  -15.7687  -22.1703  -38.0783 H   0  0  0  0  0  0  0  0  0  0  0  0
  -12.9445  -28.2890  -35.8103 H   0  0  0  0  0  0  0  0  0  0  0  0
  -12.1627  -28.1247  -34.2366 H   0  0  0  0  0  0  0  0  0  0  0  0
  -11.8311  -25.6420  -33.2670 H   0  0  0  0  0  0  0  0  0  0  0  0
  -12.3987  -24.2953  -34.2547 H   0  0  0  0  0  0  0  0  0  0  0  0
  -10.4809  -28.5273  -35.9640 H   0  0  0  0  0  0  0  0  0  0  0  0
  -11.0248  -27.1477  -36.9094 H   0  0  0  0  0  0  0  0  0  0  0  0
  -10.6926  -24.8083  -35.9857 H   0  0  0  0  0  0  0  0  0  0  0  0
   -9.9287  -24.6245  -34.4067 H   0  0  0  0  0  0  0  0  0  0  0  0
  -16.7740  -24.0760  -37.2340 H   0  0  0  0  0  0  0  0  0  0  0  0
  -13.8347  -26.3960  -34.3666 H   0  0  0  0  0  0  0  0  0  0  0  0
   -8.9347  -28.9845  -34.4029 H   0  0  0  0  0  0  0  0  0  0  0  0
   -7.2673  -28.3636  -34.5140 H   0  0  0  0  0  0  0  0  0  0  0  0
   -8.2844  -28.4772  -35.9829 H   0  0  0  0  0  0  0  0  0  0  0  0
  -14.1646  -24.8227  -38.3552 H   0  0  0  0  0  0  0  0  0  0  0  0
  -12.7992  -25.7124  -37.0385 H   0  0  0  0  0  0  0  0  0  0  0  0
  1 15  1  0  0  0  0
  1 16  1  0  0  0  0
  1 19  2  0  0  0  0
  2 17  1  0  0  0  0
  2 18  1  0  0  0  0
  2 20  2  0  0  0  0
  3  4  1  0  0  0  0
  3  5  1  0  0  0  0
  4  6  1  0  0  0  0
  5  7  1  0  0  0  0
  6  8  1  0  0  0  0
  7 13  1  0  0  0  0
  8 13  1  0  0  0  0
  9 11  1  0  0  0  0
  9 14  1  0  0  0  0
 10 12  1  0  0  0  0
 10 14  1  0  0  0  0
 11 16  1  0  0  0  0
 12 16  1  0  0  0  0
 13 17  1  0  0  0  0
 14 18  1  0  0  0  0
  3 21  1  0  0  0  0
  3 22  1  0  0  0  0
  4 23  1  0  0  0  0
  4 24  1  0  0  0  0
  5 25  1  0  0  0  0
  5 26  1  0  0  0  0
  6 27  1  0  0  0  0
  6 28  1  0  0  0  0
  7 29  1  0  0  0  0
  7 30  1  0  0  0  0
  8 31  1  0  0  0  0
  8 32  1  0  0  0  0
  9 33  1  0  0  0  0
  9 34  1  0  0  0  0
 10 35  1  0  0  0  0
 10 36  1  0  0  0  0
 11 37  1  0  0  0  0
 11 38  1  0  0  0  0
 12 39  1  0  0  0  0
 12 40  1  0  0  0  0
 13 41  1  0  0  0  0
 14 42  1  0  0  0  0
 15 43  1  0  0  0  0
 15 44  1  0  0  0  0
 15 45  1  0  0  0  0
 17 46  1  0  0  0  0
 18 47  1  0  0  0  0
M  END
> <Name>
A_49

> <SourceTag>
A_49

> <Gold.Version>
5.2

> <Gold.Id.Protein>
6HGV|6HGV_protein|mol2

> <Gold.Goldscore.Fitness>
56.4314

> <Gold.Goldscore.Internal.Vdw>
-4.7780

> <Gold.Goldscore.Internal.Torsion>
-2.0589

> <Gold.Goldscore.External.Vdw>
41.0707

> <Gold.Goldscore.Internal.HBond>
0.0000

> <Gold.Goldscore.External.HBond>
1.7959

> <Gold.Goldscore.Internal.Correction>
-5.0003

> <Gold.Goldscore.Hbonds>
donor molecule, donor type, donor heavy atom, donor atom, acceptor molecule, acceptor atom, score
      L1  H    17    46       P1  1931  0.90

> <Gold.Goldscore.Internal.Vdw.Weighted>
-4.7780

> <Gold.Goldscore.Internal.Torsion.Weighted>
-2.0589

> <Gold.Goldscore.External.Vdw.Weighted>
56.4722

> <Gold.Goldscore.Internal.HBond.Weighted>
0.0000

> <Gold.Goldscore.External.HBond.Weighted>
1.7959

> <Gold.Goldscore.Internal.Correction.Weighted>
-5.0003

> <Gold.Protein.RotatedTorsions>
[ 3781 1176 1175 1172 ] final  107.90 input   60.00 | X-H torsion
[ 3847 1247 1246 1244 ] final  148.67 input   60.00 | X-H torsion
[ 4507 1931 1930 1928 ] final  176.46 input   60.00 | X-H torsion
[ 3677 1070 1069 1066 ] final -100.39 input   60.00 | X-H torsion
[ 3525  925  924  922 ] final  -62.61 input   59.99 | X-H torsion
[ 4531 1957 1955 1953 ] final -165.71 input   60.00 | X-H torsion

> <Gold.Protein.ActiveResidues>
 PHE267  PRO268  MET310  ASP335  TRP336  MET339  TYR343  THR360  PRO361  ILE363 
 PRO371  SER374  ILE375  ASN378  PHE381  TYR383  GLN384  PHE387  LEU408  LEU417 
 MET419  LEU428  TYR466  MET469  ASN472  ASP496  VAL498  LEU499  MET503  HIS524 
 TRP525 

> <Gold.Protein.RotatedAtoms>
   -3.6899  -29.5939  -29.5084 H   0  0  0  0  0  0  0  0  0  0  0  0  # atno 3525 bound_to 925 
  -11.7293  -23.7513  -31.4180 H   0  0  0  0  0  0  0  0  0  0  0  0  # atno 3677 bound_to 1070
  -10.0057  -37.1893  -32.3825 H   0  0  0  0  0  0  0  0  0  0  0  0  # atno 3781 bound_to 1176
  -14.3761  -27.8525  -37.9095 H   0  0  0  0  0  0  0  0  0  0  0  0  # atno 3847 bound_to 1247
  -12.8338  -23.8273  -40.1455 H   0  0  0  0  0  0  0  0  0  0  0  0  # atno 4507 bound_to 1931
   -1.3688  -33.5717  -36.9904 H   0  0  0  0  0  0  0  0  0  0  0  0  # atno 4531 bound_to 1957
  -10.7446  -37.1366  -33.8314 LP  0  0  0  0  0  0  0  0  0  0  0  0  # atno 5205 bound_to 1176
   -9.3607  -36.3050  -33.5866 LP  0  0  0  0  0  0  0  0  0  0  0  0  # atno 5206 bound_to 1176
  -15.3047  -28.9364  -37.1277 LP  0  0  0  0  0  0  0  0  0  0  0  0  # atno 5215 bound_to 1247
  -15.8894  -27.4499  -37.4668 LP  0  0  0  0  0  0  0  0  0  0  0  0  # atno 5216 bound_to 1247
  -12.6676  -24.7157  -38.7923 LP  0  0  0  0  0  0  0  0  0  0  0  0  # atno 5217 bound_to 1931
  -13.6950  -25.1964  -39.9669 LP  0  0  0  0  0  0  0  0  0  0  0  0  # atno 5218 bound_to 1931
  -11.3375  -22.3027  -30.7886 LP  0  0  0  0  0  0  0  0  0  0  0  0  # atno 5224 bound_to 1070
  -12.7887  -22.9743  -30.4577 LP  0  0  0  0  0  0  0  0  0  0  0  0  # atno 5225 bound_to 1070

$$$$
A_47|SEH_inhibs_minimized|sdf|33|dock6
  -GOLD-   41821 9573D 1   1.00000     0.00000

 55 58  0  0  0  0  0  0  0  0  1 V2000
  -10.4443  -33.5153  -32.5292 C   0  0  0  0  0  0  0  0  0  0  0  0
  -10.2655  -34.8339  -34.5457 C   0  0  0  0  0  0  0  0  0  0  0  0
   -7.0397  -35.3912  -33.6990 C   0  0  0  0  0  0  0  0  0  0  0  0
   -6.4216  -33.4723  -32.3675 C   0  0  0  0  0  0  0  0  0  0  0  0
  -11.6865  -34.0907  -32.2629 C   0  0  0  0  0  0  0  0  0  0  0  0
  -11.5079  -35.4095  -34.2794 C   0  0  0  0  0  0  0  0  0  0  0  0
   -6.0076  -36.1273  -33.1174 C   0  0  0  0  0  0  0  0  0  0  0  0
   -5.3895  -34.2083  -31.7857 C   0  0  0  0  0  0  0  0  0  0  0  0
  -13.7043  -25.3209  -36.4704 C   0  0  0  0  0  0  0  0  0  0  0  0
  -13.8243  -26.4151  -35.6422 C   0  0  0  0  0  0  0  0  0  0  0  0
  -11.5201  -25.0809  -35.8372 C   0  0  0  0  0  0  0  0  0  0  0  0
   -9.7336  -33.8870  -33.6705 C   0  0  0  0  0  0  0  0  0  0  0  0
   -7.2468  -34.0636  -33.3241 C   0  0  0  0  0  0  0  0  0  0  0  0
  -12.2184  -35.0378  -33.1380 C   0  0  0  0  0  0  0  0  0  0  0  0
   -5.1825  -35.5358  -32.1607 C   0  0  0  0  0  0  0  0  0  0  0  0
  -11.6401  -26.1752  -35.0088 C   0  0  0  0  0  0  0  0  0  0  0  0
   -9.1919  -29.8411  -35.5787 C   0  0  0  0  0  0  0  0  0  0  0  0
  -10.8898  -27.6457  -33.0963 C   0  0  0  0  0  0  0  0  0  0  0  0
  -10.8028  -29.0041  -33.7819 C   0  0  0  0  0  0  0  0  0  0  0  0
   -9.3742  -27.4425  -34.9263 C   0  0  0  0  0  0  0  0  0  0  0  0
  -10.4569  -26.6502  -34.1832 C   0  0  1  0  0  0  0  0  0  0  0  0
   -8.1417  -32.9601  -35.4664 C   0  0  0  0  0  0  0  0  0  0  0  0
   -9.3113  -32.2548  -36.1569 C   0  0  0  0  0  0  0  0  0  0  0  0
   -8.3767  -33.2583  -33.9609 C   0  0  0  0  0  0  0  0  0  0  0  0
  -12.5501  -24.6340  -36.5827 N   0  0  0  0  0  0  0  0  0  0  0  0
  -12.7943  -26.8619  -34.8966 N   0  0  0  0  0  0  0  0  0  0  0  0
   -9.7661  -28.8412  -34.7972 N   0  0  0  0  0  0  0  0  0  0  0  0
   -9.7706  -31.0961  -35.4263 N   0  0  0  0  0  0  0  0  0  0  0  0
   -8.2488  -29.6281  -36.3455 O   0  0  0  0  0  0  0  0  0  0  0  0
  -13.4116  -35.5902  -32.8831 F   0  0  0  0  0  0  0  0  0  0  0  0
   -4.1909  -36.2421  -31.6023 F   0  0  0  0  0  0  0  0  0  0  0  0
  -10.0379  -32.7778  -31.8420 H   0  0  0  0  0  0  0  0  0  0  0  0
   -9.7192  -35.1290  -35.4377 H   0  0  0  0  0  0  0  0  0  0  0  0
   -7.6774  -35.8600  -34.4438 H   0  0  0  0  0  0  0  0  0  0  0  0
   -6.5752  -32.4383  -32.0699 H   0  0  0  0  0  0  0  0  0  0  0  0
  -12.2401  -33.8008  -31.3747 H   0  0  0  0  0  0  0  0  0  0  0  0
  -11.9222  -36.1465  -34.9609 H   0  0  0  0  0  0  0  0  0  0  0  0
   -5.8460  -37.1606  -33.4097 H   0  0  0  0  0  0  0  0  0  0  0  0
   -4.7468  -33.7479  -31.0414 H   0  0  0  0  0  0  0  0  0  0  0  0
  -14.5324  -24.9624  -37.0694 H   0  0  0  0  0  0  0  0  0  0  0  0
  -14.7522  -26.9663  -35.5526 H   0  0  0  0  0  0  0  0  0  0  0  0
  -10.5953  -24.5240  -35.9325 H   0  0  0  0  0  0  0  0  0  0  0  0
  -11.8845  -27.4528  -32.6825 H   0  0  0  0  0  0  0  0  0  0  0  0
  -10.1673  -27.6119  -32.2709 H   0  0  0  0  0  0  0  0  0  0  0  0
  -10.5408  -29.8046  -33.0837 H   0  0  0  0  0  0  0  0  0  0  0  0
  -11.7375  -29.2630  -34.2907 H   0  0  0  0  0  0  0  0  0  0  0  0
   -9.2561  -27.1691  -35.9801 H   0  0  0  0  0  0  0  0  0  0  0  0
   -8.4035  -27.3376  -34.4275 H   0  0  0  0  0  0  0  0  0  0  0  0
  -10.0188  -25.7296  -33.7029 H   0  0  0  0  0  0  0  0  0  0  0  0
   -7.9332  -33.8827  -36.0206 H   0  0  0  0  0  0  0  0  0  0  0  0
   -7.2469  -32.3306  -35.5679 H   0  0  0  0  0  0  0  0  0  0  0  0
  -10.1657  -32.9231  -36.2983 H   0  0  0  0  0  0  0  0  0  0  0  0
   -8.9971  -31.9022  -37.1448 H   0  0  0  0  0  0  0  0  0  0  0  0
   -8.3554  -32.2751  -33.4688 H   0  0  0  0  0  0  0  0  0  0  0  0
  -10.5441  -31.2021  -34.7779 H   0  0  0  0  0  0  0  0  0  0  0  0
  1  5  1  0  0  0  0
  1 12  2  0  0  0  0
  2  6  2  0  0  0  0
  2 12  1  0  0  0  0
  3  7  1  0  0  0  0
  3 13  2  0  0  0  0
  4  8  2  0  0  0  0
  4 13  1  0  0  0  0
  5 14  2  0  0  0  0
  6 14  1  0  0  0  0
  7 15  2  0  0  0  0
  8 15  1  0  0  0  0
  9 10  2  0  0  0  0
  9 25  1  0  0  0  0
 10 26  1  0  0  0  0
 11 16  1  0  0  0  0
 11 25  2  0  0  0  0
 12 24  1  0  0  0  0
 13 24  1  0  0  0  0
 14 30  1  0  0  0  0
 15 31  1  0  0  0  0
 16 21  1  0  0  0  0
 16 26  2  0  0  0  0
 17 27  1  0  0  0  0
 17 28  1  0  0  0  0
 17 29  2  0  0  0  0
 18 19  1  0  0  0  0
 18 21  1  0  0  0  0
 19 27  1  0  0  0  0
 20 21  1  0  0  0  0
 20 27  1  0  0  0  0
 22 23  1  0  0  0  0
 22 24  1  0  0  0  0
 23 28  1  0  0  0  0
  1 32  1  0  0  0  0
  2 33  1  0  0  0  0
  3 34  1  0  0  0  0
  4 35  1  0  0  0  0
  5 36  1  0  0  0  0
  6 37  1  0  0  0  0
  7 38  1  0  0  0  0
  8 39  1  0  0  0  0
  9 40  1  0  0  0  0
 10 41  1  0  0  0  0
 11 42  1  0  0  0  0
 18 43  1  0  0  0  0
 18 44  1  0  0  0  0
 19 45  1  0  0  0  0
 19 46  1  0  0  0  0
 20 47  1  0  0  0  0
 20 48  1  0  0  0  0
 21 49  1  0  0  0  0
 22 50  1  0  0  0  0
 22 51  1  0  0  0  0
 23 52  1  0  0  0  0
 23 53  1  0  0  0  0
 24 54  1  0  0  0  0
 28 55  1  0  0  0  0
M  END
> <Name>
A_47

> <SourceTag>
A_47

> <Gold.Version>
5.2

> <Gold.Id.Protein>
6HGV|6HGV_protein|mol2

> <Gold.Goldscore.Fitness>
62.8989

> <Gold.Goldscore.Internal.Vdw>
-1.9203

> <Gold.Goldscore.Internal.Torsion>
-2.3347

> <Gold.Goldscore.External.Vdw>
45.4956

> <Gold.Goldscore.Internal.HBond>
0.0000

> <Gold.Goldscore.External.HBond>
0.9585

> <Gold.Goldscore.Internal.Correction>
-3.6388

> <Gold.Goldscore.Hbonds>
donor molecule, donor type, donor heavy atom, donor atom, acceptor molecule, acceptor atom, score
      P1  H  1931  4507       L1    25  0.48

> <Gold.Goldscore.Internal.Vdw.Weighted>
-1.9203

> <Gold.Goldscore.Internal.Torsion.Weighted>
-2.3347

> <Gold.Goldscore.External.Vdw.Weighted>
62.5565

> <Gold.Goldscore.Internal.HBond.Weighted>
0.0000

> <Gold.Goldscore.External.HBond.Weighted>
0.9585

> <Gold.Goldscore.Internal.Correction.Weighted>
-3.6388

> <Gold.Protein.RotatedTorsions>
[ 3781 1176 1175 1172 ] final   86.27 input   60.00 | X-H torsion
[ 3847 1247 1246 1244 ] final  112.49 input   60.00 | X-H torsion
[ 4507 1931 1930 1928 ] final   49.97 input   60.00 | X-H torsion
[ 3677 1070 1069 1066 ] final  -99.04 input   60.00 | X-H torsion
[ 3525  925  924  922 ] final   -6.47 input   59.99 | X-H torsion
[ 4531 1957 1955 1953 ] final  123.43 input   60.00 | X-H torsion

> <Gold.Protein.ActiveResidues>
 PHE267  PRO268  MET310  ASP335  TRP336  MET339  TYR343  THR360  PRO361  ILE363 
 PRO371  SER374  ILE375  ASN378  PHE381  TYR383  GLN384  PHE387  LEU408  LEU417 
 MET419  LEU428  TYR466  MET469  ASN472  ASP496  VAL498  LEU499  MET503  HIS524 
 TRP525 

> <Gold.Protein.RotatedAtoms>
   -3.6514  -29.5304  -30.3863 H   0  0  0  0  0  0  0  0  0  0  0  0  # atno 3525 bound_to 925 
  -11.7490  -23.7601  -31.4134 H   0  0  0  0  0  0  0  0  0  0  0  0  # atno 3677 bound_to 1070
  -10.3003  -37.3432  -32.4964 H   0  0  0  0  0  0  0  0  0  0  0  0  # atno 3781 bound_to 1176
  -14.3349  -28.3994  -37.7164 H   0  0  0  0  0  0  0  0  0  0  0  0  # atno 3847 bound_to 1247
  -12.7269  -24.8042  -38.7928 H   0  0  0  0  0  0  0  0  0  0  0  0  # atno 4507 bound_to 1931
   -2.3246  -34.0562  -36.8171 H   0  0  0  0  0  0  0  0  0  0  0  0  # atno 4531 bound_to 1957
  -10.5573  -36.9300  -34.0492 LP  0  0  0  0  0  0  0  0  0  0  0  0  # atno 5205 bound_to 1176
   -9.2513  -36.3565  -33.2541 LP  0  0  0  0  0  0  0  0  0  0  0  0  # atno 5206 bound_to 1176
  -15.8001  -28.6346  -37.0487 LP  0  0  0  0  0  0  0  0  0  0  0  0  # atno 5215 bound_to 1247
  -15.4354  -27.2009  -37.7402 LP  0  0  0  0  0  0  0  0  0  0  0  0  # atno 5216 bound_to 1247
  -13.7019  -25.1341  -40.0533 LP  0  0  0  0  0  0  0  0  0  0  0  0  # atno 5217 bound_to 1931
  -12.7684  -23.7943  -40.0681 LP  0  0  0  0  0  0  0  0  0  0  0  0  # atno 5218 bound_to 1931
  -11.3233  -22.3135  -30.8018 LP  0  0  0  0  0  0  0  0  0  0  0  0  # atno 5224 bound_to 1070
  -12.7832  -22.9546  -30.4492 LP  0  0  0  0  0  0  0  0  0  0  0  0  # atno 5225 bound_to 1070

$$$$
A_48|SEH_inhibs_minimized|sdf|34|dock1
  -GOLD-   41821 9583D 1   1.00000     0.00000

 44 47  0  0  0  0  0  0  0  0  1 V2000
  -20.1403  -24.0455  -37.8517 C   0  0  0  0  0  0  0  0  0  0  0  0
  -19.2425  -23.7494  -38.8773 C   0  0  0  0  0  0  0  0  0  0  0  0
  -19.6695  -24.5261  -36.6297 C   0  0  0  0  0  0  0  0  0  0  0  0
   -8.0013  -32.5251  -36.1224 C   0  0  0  0  0  0  0  0  0  0  0  0
   -8.7596  -31.3696  -35.9699 C   0  0  0  0  0  0  0  0  0  0  0  0
  -17.8738  -23.9339  -38.6807 C   0  0  0  0  0  0  0  0  0  0  0  0
  -18.3009  -24.7106  -36.4334 C   0  0  0  0  0  0  0  0  0  0  0  0
  -12.9141  -27.7426  -35.0757 C   0  0  0  0  0  0  0  0  0  0  0  0
  -14.1877  -27.2744  -35.3795 C   0  0  0  0  0  0  0  0  0  0  0  0
   -8.4573  -27.7846  -34.7873 C   0  0  0  0  0  0  0  0  0  0  0  0
   -6.6490  -32.4570  -35.8281 C   0  0  0  0  0  0  0  0  0  0  0  0
   -6.7921  -30.2339  -35.2658 C   0  0  0  0  0  0  0  0  0  0  0  0
  -12.0309  -26.2283  -36.6832 C   0  0  0  0  0  0  0  0  0  0  0  0
   -8.1510  -30.1979  -35.5339 C   0  0  0  0  0  0  0  0  0  0  0  0
  -17.4031  -24.4145  -37.4588 C   0  0  0  0  0  0  0  0  0  0  0  0
  -11.8099  -27.2147  -35.7356 C   0  0  0  0  0  0  0  0  0  0  0  0
   -8.9091  -28.9858  -35.3661 C   0  0  0  0  0  0  0  0  0  0  0  0
   -9.5384  -26.9404  -34.8603 C   0  0  0  0  0  0  0  0  0  0  0  0
  -14.3024  -26.2854  -36.3431 C   0  0  0  0  0  0  0  0  0  0  0  0
  -15.9766  -24.6084  -37.2541 C   0  0  0  0  0  0  0  0  0  0  0  0
   -9.6945  -25.5402  -34.4200 C   0  0  0  0  0  0  0  0  0  0  0  0
   -6.0227  -31.3371  -35.4023 N   0  0  0  0  0  0  0  0  0  0  0  0
  -13.2531  -25.7484  -37.0050 N   0  0  0  0  0  0  0  0  0  0  0  0
  -10.1782  -28.9153  -35.7763 N   0  0  0  0  0  0  0  0  0  0  0  0
  -10.5333  -27.6595  -35.4550 N   0  0  0  0  0  0  0  0  0  0  0  0
  -15.6040  -25.8150  -36.6451 N   0  0  0  0  0  0  0  0  0  0  0  0
  -15.1870  -23.7304  -37.6383 O   0  0  0  0  0  0  0  0  0  0  0  0
  -10.6191  -25.3886  -33.4193 F   0  0  0  0  0  0  0  0  0  0  0  0
   -8.5461  -24.9738  -33.9275 F   0  0  0  0  0  0  0  0  0  0  0  0
  -10.1023  -24.6817  -35.4096 F   0  0  0  0  0  0  0  0  0  0  0  0
  -21.2059  -23.9021  -38.0050 H   0  0  0  0  0  0  0  0  0  0  0  0
  -19.6099  -23.3760  -39.8287 H   0  0  0  0  0  0  0  0  0  0  0  0
  -20.3692  -24.7564  -35.8315 H   0  0  0  0  0  0  0  0  0  0  0  0
   -8.4542  -33.4498  -36.4610 H   0  0  0  0  0  0  0  0  0  0  0  0
   -9.8229  -31.3980  -36.1949 H   0  0  0  0  0  0  0  0  0  0  0  0
  -17.1834  -23.6988  -39.4869 H   0  0  0  0  0  0  0  0  0  0  0  0
  -17.9457  -25.0855  -35.4769 H   0  0  0  0  0  0  0  0  0  0  0  0
  -12.7959  -28.5190  -34.3243 H   0  0  0  0  0  0  0  0  0  0  0  0
  -15.0551  -27.6815  -34.8700 H   0  0  0  0  0  0  0  0  0  0  0  0
   -7.4846  -27.5583  -34.3737 H   0  0  0  0  0  0  0  0  0  0  0  0
   -6.0141  -33.3308  -35.9311 H   0  0  0  0  0  0  0  0  0  0  0  0
   -6.2570  -29.3532  -34.9224 H   0  0  0  0  0  0  0  0  0  0  0  0
  -11.2100  -25.7759  -37.2321 H   0  0  0  0  0  0  0  0  0  0  0  0
  -16.3547  -26.4566  -36.4013 H   0  0  0  0  0  0  0  0  0  0  0  0
  1  2  2  0  0  0  0
  1  3  1  0  0  0  0
  2  6  1  0  0  0  0
  3  7  2  0  0  0  0
  4  5  1  0  0  0  0
  4 11  2  0  0  0  0
  5 14  2  0  0  0  0
  6 15  2  0  0  0  0
  7 15  1  0  0  0  0
  8  9  2  0  0  0  0
  8 16  1  0  0  0  0
  9 19  1  0  0  0  0
 10 17  1  0  0  0  0
 10 18  2  0  0  0  0
 11 22  1  0  0  0  0
 12 14  1  0  0  0  0
 12 22  2  0  0  0  0
 13 16  2  0  0  0  0
 13 23  1  0  0  0  0
 14 17  1  0  0  0  0
 15 20  1  0  0  0  0
 16 25  1  0  0  0  0
 17 24  2  0  0  0  0
 18 21  1  0  0  0  0
 18 25  1  0  0  0  0
 19 23  2  0  0  0  0
 19 26  1  0  0  0  0
 20 26  1  0  0  0  0
 20 27  2  0  0  0  0
 21 28  1  0  0  0  0
 21 29  1  0  0  0  0
 21 30  1  0  0  0  0
 24 25  1  0  0  0  0
  1 31  1  0  0  0  0
  2 32  1  0  0  0  0
  3 33  1  0  0  0  0
  4 34  1  0  0  0  0
  5 35  1  0  0  0  0
  6 36  1  0  0  0  0
  7 37  1  0  0  0  0
  8 38  1  0  0  0  0
  9 39  1  0  0  0  0
 10 40  1  0  0  0  0
 11 41  1  0  0  0  0
 12 42  1  0  0  0  0
 13 43  1  0  0  0  0
 26 44  1  0  0  0  0
M  END
> <Name>
A_48

> <SourceTag>
A_48

> <Gold.Version>
5.2

> <Gold.Id.Protein>
6HGV|6HGV_protein|mol2

> <Gold.Goldscore.Fitness>
74.3864

> <Gold.Goldscore.Internal.Vdw>
0.8802

> <Gold.Goldscore.Internal.Torsion>
-9.9166

> <Gold.Goldscore.External.Vdw>
53.8732

> <Gold.Goldscore.Internal.HBond>
0.0000

> <Gold.Goldscore.External.HBond>
1.8408

> <Gold.Goldscore.Internal.Correction>
-7.5063

> <Gold.Goldscore.Hbonds>
donor molecule, donor type, donor heavy atom, donor atom, acceptor molecule, acceptor atom, score
      P1  H  1256  3854       L1    24  0.09
      P1  H  1931  4507       L1    23  0.83

> <Gold.Goldscore.Internal.Vdw.Weighted>
0.8802

> <Gold.Goldscore.Internal.Torsion.Weighted>
-9.9166

> <Gold.Goldscore.External.Vdw.Weighted>
74.0757

> <Gold.Goldscore.Internal.HBond.Weighted>
0.0000

> <Gold.Goldscore.External.HBond.Weighted>
1.8408

> <Gold.Goldscore.Internal.Correction.Weighted>
-7.5063

> <Gold.Protein.RotatedTorsions>
[ 3781 1176 1175 1172 ] final -108.67 input   60.00 | X-H torsion
[ 3847 1247 1246 1244 ] final   -3.97 input   60.00 | X-H torsion
[ 4507 1931 1930 1928 ] final   21.45 input   60.00 | X-H torsion
[ 3677 1070 1069 1066 ] final -149.48 input   60.00 | X-H torsion
[ 3525  925  924  922 ] final   78.34 input   59.99 | X-H torsion
[ 4531 1957 1955 1953 ] final    7.38 input   60.00 | X-H torsion

> <Gold.Protein.ActiveResidues>
 PHE267  PRO268  MET310  ASP335  TRP336  MET339  TYR343  THR360  PRO361  ILE363 
 PRO371  SER374  ILE375  ASN378  PHE381  TYR383  GLN384  PHE387  LEU408  LEU417 
 MET419  LEU428  TYR466  MET469  ASN472  ASP496  VAL498  LEU499  MET503  HIS524 
 TRP525 

> <Gold.Protein.RotatedAtoms>
   -2.5426  -29.9765  -30.7936 H   0  0  0  0  0  0  0  0  0  0  0  0  # atno 3525 bound_to 925 
  -11.1770  -23.2051  -31.3785 H   0  0  0  0  0  0  0  0  0  0  0  0  # atno 3677 bound_to 1070
   -9.5877  -36.3456  -33.8906 H   0  0  0  0  0  0  0  0  0  0  0  0  # atno 3781 bound_to 1176
  -15.7563  -28.6729  -37.0539 H   0  0  0  0  0  0  0  0  0  0  0  0  # atno 3847 bound_to 1247
  -13.0233  -25.1435  -38.8911 H   0  0  0  0  0  0  0  0  0  0  0  0  # atno 4507 bound_to 1931
   -2.9311  -32.5947  -36.6766 H   0  0  0  0  0  0  0  0  0  0  0  0  # atno 4531 bound_to 1957
   -9.6916  -36.9729  -32.3927 LP  0  0  0  0  0  0  0  0  0  0  0  0  # atno 5205 bound_to 1176
  -10.8346  -37.3183  -33.5067 LP  0  0  0  0  0  0  0  0  0  0  0  0  # atno 5206 bound_to 1176
  -15.4874  -27.2109  -37.7160 LP  0  0  0  0  0  0  0  0  0  0  0  0  # atno 5215 bound_to 1247
  -14.3167  -28.3491  -37.7401 LP  0  0  0  0  0  0  0  0  0  0  0  0  # atno 5216 bound_to 1247
  -13.6363  -24.7881  -40.3560 LP  0  0  0  0  0  0  0  0  0  0  0  0  # atno 5217 bound_to 1931
  -12.5355  -23.7985  -39.6663 LP  0  0  0  0  0  0  0  0  0  0  0  0  # atno 5218 bound_to 1931
  -12.0120  -22.2063  -30.4021 LP  0  0  0  0  0  0  0  0  0  0  0  0  # atno 5224 bound_to 1070
  -12.6705  -23.6208  -30.8839 LP  0  0  0  0  0  0  0  0  0  0  0  0  # atno 5225 bound_to 1070

$$$$
A_101|SEH_inhibs_minimized|sdf|3|dock6
  -GOLD-   41821 8583D 1   1.00000     0.00000

 48 51  0  0  0  0  0  0  0  0  1 V2000
   -8.7269  -29.4662  -35.3256 C   0  0  0  0  0  0  0  0  0  0  0  0
  -11.0785  -25.5414  -33.6313 C   0  0  0  0  0  0  0  0  0  0  0  0
  -10.9226  -26.9684  -33.1121 C   0  0  0  0  0  0  0  0  0  0  0  0
  -10.3403  -25.3315  -34.9507 C   0  0  0  0  0  0  0  0  0  0  0  0
  -11.3365  -27.9982  -34.1642 C   0  0  0  0  0  0  0  0  0  0  0  0
  -10.7559  -26.3651  -35.9985 C   0  0  0  0  0  0  0  0  0  0  0  0
   -4.2779  -31.8334  -32.6496 C   0  0  0  0  0  0  0  0  0  0  0  0
   -6.5451  -30.7634  -32.6173 C   0  0  0  0  0  0  0  0  0  0  0  0
   -4.6693  -29.7022  -33.9108 C   0  0  0  0  0  0  0  0  0  0  0  0
   -6.1899  -32.9064  -33.8653 C   0  0  0  0  0  0  0  0  0  0  0  0
   -4.3179  -31.8472  -35.1562 C   0  0  0  0  0  0  0  0  0  0  0  0
   -5.0296  -30.4914  -32.6386 C   0  0  0  0  0  0  0  0  0  0  0  0
   -4.6740  -32.6486  -33.8927 C   0  0  0  0  0  0  0  0  0  0  0  0
   -6.9569  -31.5690  -33.8649 C   0  0  0  0  0  0  0  0  0  0  0  0
   -5.0731  -30.5032  -35.1640 C   0  0  0  0  0  0  0  0  0  0  0  0
  -10.6080  -27.8093  -35.5015 C   0  0  0  0  0  0  0  0  0  0  0  0
   -6.5986  -30.7437  -35.1208 C   0  0  0  0  0  0  0  0  0  0  0  0
   -9.1917  -28.1543  -35.3603 N   0  0  0  0  0  0  0  0  0  0  0  0
   -7.3420  -29.5075  -35.1847 N   0  0  0  0  0  0  0  0  0  0  0  0
   -9.4451  -30.4616  -35.4091 O   0  0  0  0  0  0  0  0  0  0  0  0
  -12.1427  -25.3116  -33.7637 H   0  0  0  0  0  0  0  0  0  0  0  0
  -10.6925  -24.8374  -32.8822 H   0  0  0  0  0  0  0  0  0  0  0  0
   -9.8822  -27.1421  -32.8172 H   0  0  0  0  0  0  0  0  0  0  0  0
  -11.5371  -27.0995  -32.2135 H   0  0  0  0  0  0  0  0  0  0  0  0
  -10.5492  -24.3242  -35.3304 H   0  0  0  0  0  0  0  0  0  0  0  0
   -9.2597  -25.3927  -34.7824 H   0  0  0  0  0  0  0  0  0  0  0  0
  -11.1450  -29.0136  -33.7754 H   0  0  0  0  0  0  0  0  0  0  0  0
  -12.4271  -27.9415  -34.3201 H   0  0  0  0  0  0  0  0  0  0  0  0
  -11.8002  -26.1778  -36.3006 H   0  0  0  0  0  0  0  0  0  0  0  0
  -10.1525  -26.2213  -36.9119 H   0  0  0  0  0  0  0  0  0  0  0  0
   -3.1953  -31.6567  -32.6468 H   0  0  0  0  0  0  0  0  0  0  0  0
   -4.5103  -32.4004  -31.7398 H   0  0  0  0  0  0  0  0  0  0  0  0
   -6.8128  -31.3170  -31.7087 H   0  0  0  0  0  0  0  0  0  0  0  0
   -7.0951  -29.8149  -32.5850 H   0  0  0  0  0  0  0  0  0  0  0  0
   -5.1799  -28.7313  -33.9056 H   0  0  0  0  0  0  0  0  0  0  0  0
   -3.5923  -29.4946  -33.9298 H   0  0  0  0  0  0  0  0  0  0  0  0
   -6.4829  -33.5141  -34.7298 H   0  0  0  0  0  0  0  0  0  0  0  0
   -6.4533  -33.4853  -32.9713 H   0  0  0  0  0  0  0  0  0  0  0  0
   -3.2363  -31.6656  -35.1897 H   0  0  0  0  0  0  0  0  0  0  0  0
   -4.5653  -32.4298  -36.0517 H   0  0  0  0  0  0  0  0  0  0  0  0
   -4.7445  -29.9153  -31.7514 H   0  0  0  0  0  0  0  0  0  0  0  0
   -4.1358  -33.6031  -33.8952 H   0  0  0  0  0  0  0  0  0  0  0  0
   -8.0349  -31.7672  -33.8352 H   0  0  0  0  0  0  0  0  0  0  0  0
   -4.8027  -29.9388  -36.0644 H   0  0  0  0  0  0  0  0  0  0  0  0
  -11.0131  -28.4956  -36.2408 H   0  0  0  0  0  0  0  0  0  0  0  0
   -6.9002  -31.3016  -36.0163 H   0  0  0  0  0  0  0  0  0  0  0  0
   -8.5160  -27.4002  -35.2842 H   0  0  0  0  0  0  0  0  0  0  0  0
   -6.8258  -28.6335  -35.1704 H   0  0  0  0  0  0  0  0  0  0  0  0
  1 18  1  0  0  0  0
  1 19  1  0  0  0  0
  1 20  2  0  0  0  0
  2  3  1  0  0  0  0
  2  4  1  0  0  0  0
  3  5  1  0  0  0  0
  4  6  1  0  0  0  0
  5 16  1  0  0  0  0
  6 16  1  0  0  0  0
  7 12  1  0  0  0  0
  7 13  1  0  0  0  0
  8 12  1  0  0  0  0
  8 14  1  0  0  0  0
  9 12  1  0  0  0  0
  9 15  1  0  0  0  0
 10 13  1  0  0  0  0
 10 14  1  0  0  0  0
 11 13  1  0  0  0  0
 11 15  1  0  0  0  0
 14 17  1  0  0  0  0
 15 17  1  0  0  0  0
 16 18  1  0  0  0  0
 17 19  1  0  0  0  0
  2 21  1  0  0  0  0
  2 22  1  0  0  0  0
  3 23  1  0  0  0  0
  3 24  1  0  0  0  0
  4 25  1  0  0  0  0
  4 26  1  0  0  0  0
  5 27  1  0  0  0  0
  5 28  1  0  0  0  0
  6 29  1  0  0  0  0
  6 30  1  0  0  0  0
  7 31  1  0  0  0  0
  7 32  1  0  0  0  0
  8 33  1  0  0  0  0
  8 34  1  0  0  0  0
  9 35  1  0  0  0  0
  9 36  1  0  0  0  0
 10 37  1  0  0  0  0
 10 38  1  0  0  0  0
 11 39  1  0  0  0  0
 11 40  1  0  0  0  0
 12 41  1  0  0  0  0
 13 42  1  0  0  0  0
 14 43  1  0  0  0  0
 15 44  1  0  0  0  0
 16 45  1  0  0  0  0
 17 46  1  0  0  0  0
 18 47  1  0  0  0  0
 19 48  1  0  0  0  0
M  END
> <Name>
A_101

> <SourceTag>
A_101

> <Gold.Version>
5.2

> <Gold.Id.Protein>
6HGV|6HGV_protein|mol2

> <Gold.Goldscore.Fitness>
52.5047

> <Gold.Goldscore.Internal.Vdw>
-2.9802

> <Gold.Goldscore.Internal.Torsion>
-1.2116

> <Gold.Goldscore.External.Vdw>
38.5893

> <Gold.Goldscore.Internal.HBond>
0.0000

> <Gold.Goldscore.External.HBond>
0.0300

> <Gold.Goldscore.Internal.Correction>
-3.6062

> <Gold.Goldscore.Hbonds>
donor molecule, donor type, donor heavy atom, donor atom, acceptor molecule, acceptor atom, score
      P1  H  1256  3854       L1    20  0.02

> <Gold.Goldscore.Internal.Vdw.Weighted>
-2.9802

> <Gold.Goldscore.Internal.Torsion.Weighted>
-1.2116

> <Gold.Goldscore.External.Vdw.Weighted>
53.0602

> <Gold.Goldscore.Internal.HBond.Weighted>
0.0000

> <Gold.Goldscore.External.HBond.Weighted>
0.0300

> <Gold.Goldscore.Internal.Correction.Weighted>
-3.6062

> <Gold.Protein.RotatedTorsions>
[ 3781 1176 1175 1172 ] final -130.80 input   60.00 | X-H torsion
[ 3847 1247 1246 1244 ] final  125.22 input   60.00 | X-H torsion
[ 4507 1931 1930 1928 ] final   65.16 input   60.00 | X-H torsion
[ 3677 1070 1069 1066 ] final  -72.96 input   60.00 | X-H torsion
[ 3525  925  924  922 ] final  113.09 input   59.99 | X-H torsion
[ 4531 1957 1955 1953 ] final   91.37 input   60.00 | X-H torsion

> <Gold.Protein.ActiveResidues>
 PHE267  PRO268  MET310  ASP335  TRP336  MET339  TYR343  THR360  PRO361  ILE363 
 PRO371  SER374  ILE375  ASN378  PHE381  TYR383  GLN384  PHE387  LEU408  LEU417 
 MET419  LEU428  TYR466  MET469  ASN472  ASP496  VAL498  LEU499  MET503  HIS524 
 TRP525 

> <Gold.Protein.RotatedAtoms>
   -2.1674  -30.1735  -30.4289 H   0  0  0  0  0  0  0  0  0  0  0  0  # atno 3525 bound_to 925 
  -12.1375  -23.8456  -31.2710 H   0  0  0  0  0  0  0  0  0  0  0  0  # atno 3677 bound_to 1070
   -9.3739  -36.3103  -33.6039 H   0  0  0  0  0  0  0  0  0  0  0  0  # atno 3781 bound_to 1176
  -14.3098  -28.2105  -37.7985 H   0  0  0  0  0  0  0  0  0  0  0  0  # atno 3847 bound_to 1247
  -12.5985  -24.5951  -38.8245 H   0  0  0  0  0  0  0  0  0  0  0  0  # atno 4507 bound_to 1931
   -2.7845  -33.8381  -36.7259 H   0  0  0  0  0  0  0  0  0  0  0  0  # atno 4531 bound_to 1957
   -9.9886  -37.1786  -32.3726 LP  0  0  0  0  0  0  0  0  0  0  0  0  # atno 5205 bound_to 1176
  -10.7528  -37.1481  -33.8154 LP  0  0  0  0  0  0  0  0  0  0  0  0  # atno 5206 bound_to 1176
  -15.6443  -28.7735  -37.0567 LP  0  0  0  0  0  0  0  0  0  0  0  0  # atno 5215 bound_to 1247
  -15.6165  -27.2522  -37.6495 LP  0  0  0  0  0  0  0  0  0  0  0  0  # atno 5216 bound_to 1247
  -13.6733  -25.2674  -39.8447 LP  0  0  0  0  0  0  0  0  0  0  0  0  # atno 5217 bound_to 1931
  -12.9263  -23.8715  -40.2447 LP  0  0  0  0  0  0  0  0  0  0  0  0  # atno 5218 bound_to 1931
  -11.1247  -22.5900  -31.0569 LP  0  0  0  0  0  0  0  0  0  0  0  0  # atno 5224 bound_to 1070
  -12.5906  -22.5921  -30.3374 LP  0  0  0  0  0  0  0  0  0  0  0  0  # atno 5225 bound_to 1070

$$$$
A_16|SEH_inhibs_minimized|sdf|17|dock3
  -GOLD-   41821 9243D 1   1.00000     0.00000

 65 69  0  0  0  0  0  0  0  0  1 V2000
  -10.1395  -25.4194  -34.7361 C   0  0  0  0  0  0  0  0  0  0  0  0
   -9.4267  -26.6173  -34.7893 C   0  0  0  0  0  0  0  0  0  0  0  0
  -11.2207  -25.2125  -35.5929 C   0  0  0  0  0  0  0  0  0  0  0  0
  -10.8757  -27.4010  -36.5567 C   0  0  0  0  0  0  0  0  0  0  0  0
   -9.7947  -27.6080  -35.6996 C   0  0  0  0  0  0  0  0  0  0  0  0
  -11.5887  -26.2033  -36.5034 C   0  0  0  0  0  0  0  0  0  0  0  0
   -8.0139  -29.2289  -34.9355 C   0  0  0  0  0  0  0  0  0  0  0  0
   -4.3790  -31.2942  -32.5786 C   0  0  0  0  0  0  0  0  0  0  0  0
   -3.8226  -32.4757  -34.7196 C   0  0  0  0  0  0  0  0  0  0  0  0
   -5.4562  -33.4952  -33.1131 C   0  0  0  0  0  0  0  0  0  0  0  0
   -5.1814  -30.3689  -34.7666 C   0  0  0  0  0  0  0  0  0  0  0  0
   -6.8166  -31.3894  -33.1584 C   0  0  0  0  0  0  0  0  0  0  0  0
   -6.2597  -32.5732  -35.3025 C   0  0  0  0  0  0  0  0  0  0  0  0
  -17.7373  -23.2432  -38.7897 C   0  0  0  0  0  0  0  0  0  0  0  0
  -18.0347  -24.8004  -36.9772 C   0  0  0  0  0  0  0  0  0  0  0  0
  -19.1126  -23.6400  -39.3187 C   0  0  0  0  0  0  0  0  0  0  0  0
  -19.4024  -25.1614  -37.5497 C   0  0  0  0  0  0  0  0  0  0  0  0
   -4.0251  -31.0997  -34.0627 C   0  0  0  0  0  0  0  0  0  0  0  0
   -5.6671  -32.1244  -32.4478 C   0  0  0  0  0  0  0  0  0  0  0  0
   -5.1077  -33.3124  -34.6001 C   0  0  0  0  0  0  0  0  0  0  0  0
   -6.4850  -31.1902  -34.6540 C   0  0  0  0  0  0  0  0  0  0  0  0
  -14.8094  -25.1019  -37.8465 C   0  0  0  0  0  0  0  0  0  0  0  0
  -15.8250  -24.0078  -37.5332 C   0  0  0  0  0  0  0  0  0  0  0  0
  -13.5531  -24.9573  -36.9984 C   0  0  0  0  0  0  0  0  0  0  0  0
  -17.1393  -24.3698  -38.0599 N   0  0  0  0  0  0  0  0  0  0  0  0
   -9.0713  -28.8223  -35.7543 N   0  0  0  0  0  0  0  0  0  0  0  0
   -7.5706  -30.4992  -35.3147 N   0  0  0  0  0  0  0  0  0  0  0  0
   -7.5191  -28.5916  -34.0089 O   0  0  0  0  0  0  0  0  0  0  0  0
  -19.9610  -24.0455  -38.2440 O   0  0  0  0  0  0  0  0  0  0  0  0
  -12.6426  -26.0014  -37.3405 O   0  0  0  0  0  0  0  0  0  0  0  0
   -9.8525  -24.6479  -34.0277 H   0  0  0  0  0  0  0  0  0  0  0  0
   -8.5859  -26.7678  -34.1169 H   0  0  0  0  0  0  0  0  0  0  0  0
  -11.7721  -24.2774  -35.5473 H   0  0  0  0  0  0  0  0  0  0  0  0
  -11.1668  -28.1701  -37.2683 H   0  0  0  0  0  0  0  0  0  0  0  0
   -3.5541  -31.7984  -32.0604 H   0  0  0  0  0  0  0  0  0  0  0  0
   -4.5110  -30.3191  -32.0939 H   0  0  0  0  0  0  0  0  0  0  0  0
   -3.5540  -32.3509  -35.7758 H   0  0  0  0  0  0  0  0  0  0  0  0
   -2.9880  -33.0007  -34.2385 H   0  0  0  0  0  0  0  0  0  0  0  0
   -4.6507  -34.0387  -32.6043 H   0  0  0  0  0  0  0  0  0  0  0  0
   -6.3634  -34.1035  -33.0128 H   0  0  0  0  0  0  0  0  0  0  0  0
   -5.3182  -29.3745  -34.3216 H   0  0  0  0  0  0  0  0  0  0  0  0
   -4.9286  -30.2011  -35.8219 H   0  0  0  0  0  0  0  0  0  0  0  0
   -7.7480  -31.9606  -33.0489 H   0  0  0  0  0  0  0  0  0  0  0  0
   -6.9932  -30.4189  -32.6759 H   0  0  0  0  0  0  0  0  0  0  0  0
   -6.0332  -32.4595  -36.3706 H   0  0  0  0  0  0  0  0  0  0  0  0
   -7.1766  -33.1747  -35.2452 H   0  0  0  0  0  0  0  0  0  0  0  0
  -17.1002  -22.9567  -39.6338 H   0  0  0  0  0  0  0  0  0  0  0  0
  -17.8386  -22.3735  -38.1281 H   0  0  0  0  0  0  0  0  0  0  0  0
  -18.1491  -23.9982  -36.2372 H   0  0  0  0  0  0  0  0  0  0  0  0
  -17.6205  -25.6776  -36.4680 H   0  0  0  0  0  0  0  0  0  0  0  0
  -19.5835  -22.7824  -39.8100 H   0  0  0  0  0  0  0  0  0  0  0  0
  -19.0438  -24.4488  -40.0563 H   0  0  0  0  0  0  0  0  0  0  0  0
  -19.3444  -26.0220  -38.2272 H   0  0  0  0  0  0  0  0  0  0  0  0
  -20.0884  -25.4252  -36.7384 H   0  0  0  0  0  0  0  0  0  0  0  0
   -3.1064  -30.5091  -34.1499 H   0  0  0  0  0  0  0  0  0  0  0  0
   -5.9135  -32.2609  -31.3890 H   0  0  0  0  0  0  0  0  0  0  0  0
   -4.9567  -34.2916  -35.0678 H   0  0  0  0  0  0  0  0  0  0  0  0
  -15.2485  -26.0935  -37.6753 H   0  0  0  0  0  0  0  0  0  0  0  0
  -14.5321  -25.0772  -38.9084 H   0  0  0  0  0  0  0  0  0  0  0  0
  -15.5062  -23.0570  -37.9742 H   0  0  0  0  0  0  0  0  0  0  0  0
  -15.9018  -23.8642  -36.4501 H   0  0  0  0  0  0  0  0  0  0  0  0
  -13.7897  -25.0374  -35.9326 H   0  0  0  0  0  0  0  0  0  0  0  0
  -13.0651  -23.9952  -37.1841 H   0  0  0  0  0  0  0  0  0  0  0  0
   -9.3549  -29.4791  -36.4770 H   0  0  0  0  0  0  0  0  0  0  0  0
   -8.0329  -30.9591  -36.0917 H   0  0  0  0  0  0  0  0  0  0  0  0
  1  2  1  0  0  0  0
  1  3  2  0  0  0  0
  2  5  2  0  0  0  0
  3  6  1  0  0  0  0
  4  5  1  0  0  0  0
  4  6  2  0  0  0  0
  5 26  1  0  0  0  0
  6 30  1  0  0  0  0
  7 26  1  0  0  0  0
  7 27  1  0  0  0  0
  7 28  2  0  0  0  0
  8 18  1  0  0  0  0
  8 19  1  0  0  0  0
  9 18  1  0  0  0  0
  9 20  1  0  0  0  0
 10 19  1  0  0  0  0
 10 20  1  0  0  0  0
 11 18  1  0  0  0  0
 11 21  1  0  0  0  0
 12 19  1  0  0  0  0
 12 21  1  0  0  0  0
 13 20  1  0  0  0  0
 13 21  1  0  0  0  0
 14 16  1  0  0  0  0
 14 25  1  0  0  0  0
 15 17  1  0  0  0  0
 15 25  1  0  0  0  0
 16 29  1  0  0  0  0
 17 29  1  0  0  0  0
 21 27  1  0  0  0  0
 22 23  1  0  0  0  0
 22 24  1  0  0  0  0
 23 25  1  0  0  0  0
 24 30  1  0  0  0  0
  1 31  1  0  0  0  0
  2 32  1  0  0  0  0
  3 33  1  0  0  0  0
  4 34  1  0  0  0  0
  8 35  1  0  0  0  0
  8 36  1  0  0  0  0
  9 37  1  0  0  0  0
  9 38  1  0  0  0  0
 10 39  1  0  0  0  0
 10 40  1  0  0  0  0
 11 41  1  0  0  0  0
 11 42  1  0  0  0  0
 12 43  1  0  0  0  0
 12 44  1  0  0  0  0
 13 45  1  0  0  0  0
 13 46  1  0  0  0  0
 14 47  1  0  0  0  0
 14 48  1  0  0  0  0
 15 49  1  0  0  0  0
 15 50  1  0  0  0  0
 16 51  1  0  0  0  0
 16 52  1  0  0  0  0
 17 53  1  0  0  0  0
 17 54  1  0  0  0  0
 18 55  1  0  0  0  0
 19 56  1  0  0  0  0
 20 57  1  0  0  0  0
 22 58  1  0  0  0  0
 22 59  1  0  0  0  0
 23 60  1  0  0  0  0
 23 61  1  0  0  0  0
 24 62  1  0  0  0  0
 24 63  1  0  0  0  0
 26 64  1  0  0  0  0
 27 65  1  0  0  0  0
M  END
> <Name>
A_16

> <SourceTag>
A_16

> <Gold.Version>
5.2

> <Gold.Id.Protein>
6HGV|6HGV_protein|mol2

> <Gold.Goldscore.Fitness>
71.2284

> <Gold.Goldscore.Internal.Vdw>
-15.4458

> <Gold.Goldscore.Internal.Torsion>
-2.7558

> <Gold.Goldscore.External.Vdw>
56.0425

> <Gold.Goldscore.Internal.HBond>
0.0000

> <Gold.Goldscore.External.HBond>
0.1980

> <Gold.Goldscore.Internal.Correction>
-12.1735

> <Gold.Goldscore.Hbonds>
donor molecule, donor type, donor heavy atom, donor atom, acceptor molecule, acceptor atom, score
      L1  H    26    64       P1  1255  0.10

> <Gold.Goldscore.Internal.Vdw.Weighted>
-15.4458

> <Gold.Goldscore.Internal.Torsion.Weighted>
-2.7558

> <Gold.Goldscore.External.Vdw.Weighted>
77.0585

> <Gold.Goldscore.Internal.HBond.Weighted>
0.0000

> <Gold.Goldscore.External.HBond.Weighted>
0.1980

> <Gold.Goldscore.Internal.Correction.Weighted>
-12.1735

> <Gold.Protein.RotatedTorsions>
[ 3781 1176 1175 1172 ] final  -21.12 input   60.00 | X-H torsion
[ 3847 1247 1246 1244 ] final  109.25 input   60.00 | X-H torsion
[ 4507 1931 1930 1928 ] final  148.25 input   60.00 | X-H torsion
[ 3677 1070 1069 1066 ] final  -66.94 input   60.00 | X-H torsion
[ 3525  925  924  922 ] final  -49.45 input   59.99 | X-H torsion
[ 4531 1957 1955 1953 ] final  137.29 input   60.00 | X-H torsion

> <Gold.Protein.ActiveResidues>
 PHE267  PRO268  MET310  ASP335  TRP336  MET339  TYR343  THR360  PRO361  ILE363 
 PRO371  SER374  ILE375  ASN378  PHE381  TYR383  GLN384  PHE387  LEU408  LEU417 
 MET419  LEU428  TYR466  MET469  ASN472  ASP496  VAL498  LEU499  MET503  HIS524 
 TRP525 

> <Gold.Protein.RotatedAtoms>
   -3.7532  -29.5481  -29.7082 H   0  0  0  0  0  0  0  0  0  0  0  0  # atno 3525 bound_to 925 
  -12.2245  -23.8411  -31.2257 H   0  0  0  0  0  0  0  0  0  0  0  0  # atno 3677 bound_to 1070
  -10.6716  -37.0539  -33.9301 H   0  0  0  0  0  0  0  0  0  0  0  0  # atno 3781 bound_to 1176
  -14.3481  -28.4454  -37.6937 H   0  0  0  0  0  0  0  0  0  0  0  0  # atno 3847 bound_to 1247
  -12.5827  -23.7863  -39.7668 H   0  0  0  0  0  0  0  0  0  0  0  0  # atno 4507 bound_to 1931
   -2.1028  -34.0640  -36.8594 H   0  0  0  0  0  0  0  0  0  0  0  0  # atno 4531 bound_to 1957
   -9.3022  -36.3169  -33.4508 LP  0  0  0  0  0  0  0  0  0  0  0  0  # atno 5205 bound_to 1176
  -10.1324  -37.2610  -32.4087 LP  0  0  0  0  0  0  0  0  0  0  0  0  # atno 5206 bound_to 1176
  -15.8353  -28.5945  -37.0502 LP  0  0  0  0  0  0  0  0  0  0  0  0  # atno 5215 bound_to 1247
  -15.3869  -27.1947  -37.7616 LP  0  0  0  0  0  0  0  0  0  0  0  0  # atno 5216 bound_to 1247
  -12.9498  -25.0747  -38.8430 LP  0  0  0  0  0  0  0  0  0  0  0  0  # atno 5217 bound_to 1931
  -13.6657  -24.8788  -40.2976 LP  0  0  0  0  0  0  0  0  0  0  0  0  # atno 5218 bound_to 1931
  -11.1019  -22.6684  -31.1128 LP  0  0  0  0  0  0  0  0  0  0  0  0  # atno 5224 bound_to 1070
  -12.5257  -22.5181  -30.3272 LP  0  0  0  0  0  0  0  0  0  0  0  0  # atno 5225 bound_to 1070

$$$$
A_21|SEH_inhibs_minimized|sdf|20|dock4
  -GOLD-   41821 9343D 1   1.00000     0.00000

 53 56  0  0  0  0  0  0  0  0  1 V2000
   -8.0848  -33.5331  -34.6635 C   0  0  0  0  0  0  0  0  0  0  0  0
  -14.4489  -26.7436  -35.3881 C   0  0  0  0  0  0  0  0  0  0  0  0
  -15.4040  -26.1053  -36.1777 C   0  0  0  0  0  0  0  0  0  0  0  0
   -7.2942  -34.6250  -34.3050 C   0  0  0  0  0  0  0  0  0  0  0  0
  -13.7180  -24.5703  -36.9710 C   0  0  0  0  0  0  0  0  0  0  0  0
   -5.3051  -33.2966  -34.6458 C   0  0  0  0  0  0  0  0  0  0  0  0
  -12.7530  -25.1976  -36.1717 C   0  0  0  0  0  0  0  0  0  0  0  0
   -7.4856  -32.3230  -35.0136 C   0  0  0  0  0  0  0  0  0  0  0  0
  -13.1236  -26.3000  -35.3932 C   0  0  0  0  0  0  0  0  0  0  0  0
  -15.0382  -25.0212  -36.9720 C   0  0  0  0  0  0  0  0  0  0  0  0
   -5.9043  -34.5066  -34.2961 C   0  0  0  0  0  0  0  0  0  0  0  0
   -6.0957  -32.2047  -35.0046 C   0  0  0  0  0  0  0  0  0  0  0  0
   -8.7974  -30.4087  -34.1651 C   0  0  0  0  0  0  0  0  0  0  0  0
  -11.3373  -24.7032  -36.1851 C   0  0  0  0  0  0  0  0  0  0  0  0
  -10.5831  -25.2356  -34.9747 C   0  0  0  0  0  0  0  0  0  0  0  0
  -10.3031  -27.6063  -35.9191 C   0  0  0  0  0  0  0  0  0  0  0  0
  -10.1619  -27.1750  -33.4452 C   0  0  0  0  0  0  0  0  0  0  0  0
  -10.4189  -29.1038  -35.6242 C   0  0  0  0  0  0  0  0  0  0  0  0
  -10.2791  -28.6799  -33.2005 C   0  0  0  0  0  0  0  0  0  0  0  0
  -10.8491  -26.7367  -34.7605 C   0  0  0  0  0  0  0  0  0  0  0  0
  -16.5221  -25.3639  -39.3016 C   0  0  0  0  0  0  0  0  0  0  0  0
   -8.3692  -31.1754  -35.3911 C   0  0  0  0  0  0  0  0  0  0  0  0
   -9.7783  -29.4345  -34.3481 N   0  0  0  0  0  0  0  0  0  0  0  0
   -8.2733  -30.6681  -33.0788 O   0  0  0  0  0  0  0  0  0  0  0  0
  -17.4770  -24.1211  -37.2175 O   0  0  0  0  0  0  0  0  0  0  0  0
  -15.6242  -23.0261  -38.5263 O   0  0  0  0  0  0  0  0  0  0  0  0
  -12.2583  -26.9918  -34.5882 O   0  0  0  0  0  0  0  0  0  0  0  0
  -16.2319  -24.2252  -37.9665 S   0  0  0  0  0  0  0  0  0  0  0  0
   -4.9298  -35.8542  -33.8538 Cl  0  0  0  0  0  0  0  0  0  0  0  0
   -5.3189  -30.7234  -35.4312 Cl  0  0  0  0  0  0  0  0  0  0  0  0
   -9.1669  -33.6359  -34.6671 H   0  0  0  0  0  0  0  0  0  0  0  0
  -14.7425  -27.5916  -34.7745 H   0  0  0  0  0  0  0  0  0  0  0  0
  -16.4299  -26.4636  -36.1679 H   0  0  0  0  0  0  0  0  0  0  0  0
   -7.7750  -35.5617  -34.0345 H   0  0  0  0  0  0  0  0  0  0  0  0
  -13.4350  -23.7225  -37.5911 H   0  0  0  0  0  0  0  0  0  0  0  0
   -4.2209  -33.2056  -34.6376 H   0  0  0  0  0  0  0  0  0  0  0  0
  -10.8522  -25.0288  -37.1126 H   0  0  0  0  0  0  0  0  0  0  0  0
  -11.3161  -23.6072  -36.1664 H   0  0  0  0  0  0  0  0  0  0  0  0
   -9.5114  -25.0326  -35.0854 H   0  0  0  0  0  0  0  0  0  0  0  0
  -10.9251  -24.6823  -34.0889 H   0  0  0  0  0  0  0  0  0  0  0  0
   -9.2487  -27.3575  -36.0952 H   0  0  0  0  0  0  0  0  0  0  0  0
  -10.8457  -27.4090  -36.8502 H   0  0  0  0  0  0  0  0  0  0  0  0
  -10.6131  -26.6528  -32.5924 H   0  0  0  0  0  0  0  0  0  0  0  0
   -9.0991  -26.9021  -33.4758 H   0  0  0  0  0  0  0  0  0  0  0  0
  -11.4707  -29.4029  -35.5473 H   0  0  0  0  0  0  0  0  0  0  0  0
   -9.9881  -29.6660  -36.4547 H   0  0  0  0  0  0  0  0  0  0  0  0
   -9.7321  -28.9461  -32.2904 H   0  0  0  0  0  0  0  0  0  0  0  0
  -11.3246  -28.9707  -33.0460 H   0  0  0  0  0  0  0  0  0  0  0  0
  -15.5788  -25.5292  -39.8245 H   0  0  0  0  0  0  0  0  0  0  0  0
  -16.8954  -26.2990  -38.8815 H   0  0  0  0  0  0  0  0  0  0  0  0
  -17.2604  -24.9249  -39.9742 H   0  0  0  0  0  0  0  0  0  0  0  0
   -7.8516  -30.4815  -36.0535 H   0  0  0  0  0  0  0  0  0  0  0  0
   -9.2697  -31.5221  -35.8979 H   0  0  0  0  0  0  0  0  0  0  0  0
  1  4  1  0  0  0  0
  1  8  2  0  0  0  0
  2  3  1  0  0  0  0
  2  9  2  0  0  0  0
  3 10  2  0  0  0  0
  4 11  2  0  0  0  0
  5  7  2  0  0  0  0
  5 10  1  0  0  0  0
  6 11  1  0  0  0  0
  6 12  2  0  0  0  0
  7  9  1  0  0  0  0
  7 14  1  0  0  0  0
  8 12  1  0  0  0  0
  8 22  1  0  0  0  0
  9 27  1  0  0  0  0
 10 28  1  0  0  0  0
 11 29  1  0  0  0  0
 12 30  1  0  0  0  0
 13 22  1  0  0  0  0
 13 23  1  0  0  0  0
 13 24  2  0  0  0  0
 14 15  1  0  0  0  0
 15 20  1  0  0  0  0
 16 18  1  0  0  0  0
 16 20  1  0  0  0  0
 17 19  1  0  0  0  0
 17 20  1  0  0  0  0
 18 23  1  0  0  0  0
 19 23  1  0  0  0  0
 20 27  1  0  0  0  0
 21 28  1  0  0  0  0
 25 28  2  0  0  0  0
 26 28  2  0  0  0  0
  1 31  1  0  0  0  0
  2 32  1  0  0  0  0
  3 33  1  0  0  0  0
  4 34  1  0  0  0  0
  5 35  1  0  0  0  0
  6 36  1  0  0  0  0
 14 37  1  0  0  0  0
 14 38  1  0  0  0  0
 15 39  1  0  0  0  0
 15 40  1  0  0  0  0
 16 41  1  0  0  0  0
 16 42  1  0  0  0  0
 17 43  1  0  0  0  0
 17 44  1  0  0  0  0
 18 45  1  0  0  0  0
 18 46  1  0  0  0  0
 19 47  1  0  0  0  0
 19 48  1  0  0  0  0
 21 49  1  0  0  0  0
 21 50  1  0  0  0  0
 21 51  1  0  0  0  0
 22 52  1  0  0  0  0
 22 53  1  0  0  0  0
M  END
> <Name>
A_21

> <SourceTag>
A_21

> <Gold.Version>
5.2

> <Gold.Id.Protein>
6HGV|6HGV_protein|mol2

> <Gold.Goldscore.Fitness>
64.0691

> <Gold.Goldscore.Internal.Vdw>
-3.1028

> <Gold.Goldscore.Internal.Torsion>
-4.0920

> <Gold.Goldscore.External.Vdw>
47.5719

> <Gold.Goldscore.Internal.HBond>
0.0000

> <Gold.Goldscore.External.HBond>
0.0000

> <Gold.Goldscore.Internal.Correction>
-5.8526

> <Gold.Goldscore.Internal.Vdw.Weighted>
-3.1028

> <Gold.Goldscore.Internal.Torsion.Weighted>
-4.0920

> <Gold.Goldscore.External.Vdw.Weighted>
65.4113

> <Gold.Goldscore.Internal.HBond.Weighted>
0.0000

> <Gold.Goldscore.External.HBond.Weighted>
0.0000

> <Gold.Goldscore.Internal.Correction.Weighted>
-5.8526

> <Gold.Protein.RotatedTorsions>
[ 3781 1176 1175 1172 ] final  -67.15 input   60.00 | X-H torsion
[ 3847 1247 1246 1244 ] final  128.60 input   60.00 | X-H torsion
[ 4507 1931 1930 1928 ] final -126.59 input   60.00 | X-H torsion
[ 3677 1070 1069 1066 ] final -111.61 input   60.00 | X-H torsion
[ 3525  925  924  922 ] final   12.35 input   59.99 | X-H torsion
[ 4531 1957 1955 1953 ] final   22.87 input   60.00 | X-H torsion

> <Gold.Protein.ActiveResidues>
 PHE267  PRO268  MET310  ASP335  TRP336  MET339  TYR343  THR360  PRO361  ILE363 
 PRO371  SER374  ILE375  ASN378  PHE381  TYR383  GLN384  PHE387  LEU408  LEU417 
 MET419  LEU428  TYR466  MET469  ASN472  ASP496  VAL498  LEU499  MET503  HIS524 
 TRP525 

> <Gold.Protein.RotatedAtoms>
   -3.4701  -29.5875  -30.6263 H   0  0  0  0  0  0  0  0  0  0  0  0  # atno 3525 bound_to 925 
  -11.5717  -23.6622  -31.4448 H   0  0  0  0  0  0  0  0  0  0  0  0  # atno 3677 bound_to 1070
  -10.1348  -36.6109  -34.1568 H   0  0  0  0  0  0  0  0  0  0  0  0  # atno 3781 bound_to 1176
  -14.3104  -28.1587  -37.8181 H   0  0  0  0  0  0  0  0  0  0  0  0  # atno 3847 bound_to 1247
  -13.4321  -24.4001  -40.4787 H   0  0  0  0  0  0  0  0  0  0  0  0  # atno 4507 bound_to 1931
   -3.0453  -32.8192  -36.6587 H   0  0  0  0  0  0  0  0  0  0  0  0  # atno 4531 bound_to 1957
   -9.3005  -36.5744  -32.7601 LP  0  0  0  0  0  0  0  0  0  0  0  0  # atno 5205 bound_to 1176
  -10.6747  -37.4496  -32.8711 LP  0  0  0  0  0  0  0  0  0  0  0  0  # atno 5206 bound_to 1176
  -15.5987  -28.8050  -37.0625 LP  0  0  0  0  0  0  0  0  0  0  0  0  # atno 5215 bound_to 1247
  -15.6615  -27.2728  -37.6240 LP  0  0  0  0  0  0  0  0  0  0  0  0  # atno 5216 bound_to 1247
  -12.4318  -23.9872  -39.2634 LP  0  0  0  0  0  0  0  0  0  0  0  0  # atno 5217 bound_to 1931
  -13.3283  -25.3481  -39.1602 LP  0  0  0  0  0  0  0  0  0  0  0  0  # atno 5218 bound_to 1931
  -11.4683  -22.2285  -30.6820 LP  0  0  0  0  0  0  0  0  0  0  0  0  # atno 5224 bound_to 1070
  -12.8167  -23.1382  -30.5373 LP  0  0  0  0  0  0  0  0  0  0  0  0  # atno 5225 bound_to 1070

$$$$
A_121|SEH_inhibs_minimized|sdf|12|dock2
  -GOLD-   41821 9143D 1   1.00000     0.00000

 48 50  0  0  0  0  0  0  0  0  1 V2000
  -18.8087  -25.1224  -36.2996 C   0  0  0  0  0  0  0  0  0  0  0  0
  -17.7164  -25.3661  -38.4408 C   0  0  0  0  0  0  0  0  0  0  0  0
  -17.5933  -25.3490  -35.6538 C   0  0  0  0  0  0  0  0  0  0  0  0
  -16.5009  -25.5927  -37.7950 C   0  0  0  0  0  0  0  0  0  0  0  0
   -8.0002  -30.0418  -34.6260 C   0  0  0  0  0  0  0  0  0  0  0  0
  -10.1489  -31.0616  -35.0500 C   0  0  0  0  0  0  0  0  0  0  0  0
   -7.3792  -31.0359  -35.3823 C   0  0  0  0  0  0  0  0  0  0  0  0
   -9.5280  -32.0557  -35.8063 C   0  0  0  0  0  0  0  0  0  0  0  0
  -18.8702  -25.1310  -37.6931 C   0  0  0  0  0  0  0  0  0  0  0  0
  -16.4395  -25.5842  -36.4015 C   0  0  0  0  0  0  0  0  0  0  0  0
   -9.3851  -30.0548  -34.4599 C   0  0  0  0  0  0  0  0  0  0  0  0
   -8.1431  -32.0428  -35.9724 C   0  0  0  0  0  0  0  0  0  0  0  0
  -13.9421  -25.3422  -36.1094 C   0  0  0  0  0  0  0  0  0  0  0  0
  -10.8578  -26.4425  -36.2545 C   0  0  0  0  0  0  0  0  0  0  0  0
  -10.9065  -25.4280  -33.9364 C   0  0  0  0  0  0  0  0  0  0  0  0
  -10.6970  -27.8315  -35.6397 C   0  0  0  0  0  0  0  0  0  0  0  0
  -10.7456  -26.8193  -33.3274 C   0  0  0  0  0  0  0  0  0  0  0  0
  -11.5751  -25.4667  -35.3150 C   0  0  2  0  0  0  0  0  0  0  0  0
  -10.0157  -27.7692  -34.2749 C   0  0  1  0  0  0  0  0  0  0  0  0
  -20.1698  -24.8887  -38.3836 C   0  0  0  0  0  0  0  0  0  0  0  0
  -15.2068  -25.8138  -35.7469 N   0  0  0  0  0  0  0  0  0  0  0  0
  -12.9795  -25.7928  -35.2015 N   0  0  0  0  0  0  0  0  0  0  0  0
  -13.6742  -24.6331  -37.0766 O   0  0  0  0  0  0  0  0  0  0  0  0
   -9.9949  -29.0788  -33.7173 O   0  0  0  0  0  0  0  0  0  0  0  0
   -7.5467  -32.9974  -36.6986 F   0  0  0  0  0  0  0  0  0  0  0  0
  -20.9754  -25.9906  -38.4364 F   0  0  0  0  0  0  0  0  0  0  0  0
  -20.9304  -23.9198  -37.7932 F   0  0  0  0  0  0  0  0  0  0  0  0
  -20.0099  -24.4899  -39.6790 F   0  0  0  0  0  0  0  0  0  0  0  0
  -19.7031  -24.9422  -35.7091 H   0  0  0  0  0  0  0  0  0  0  0  0
  -17.7554  -25.3753  -39.5269 H   0  0  0  0  0  0  0  0  0  0  0  0
  -17.5569  -25.3397  -34.5673 H   0  0  0  0  0  0  0  0  0  0  0  0
  -15.6081  -25.7760  -38.3874 H   0  0  0  0  0  0  0  0  0  0  0  0
   -7.3996  -29.2601  -34.1689 H   0  0  0  0  0  0  0  0  0  0  0  0
  -11.2281  -31.0772  -34.9243 H   0  0  0  0  0  0  0  0  0  0  0  0
   -6.3010  -31.0262  -35.5118 H   0  0  0  0  0  0  0  0  0  0  0  0
  -10.1223  -32.8398  -36.2659 H   0  0  0  0  0  0  0  0  0  0  0  0
   -9.8628  -26.0437  -36.4899 H   0  0  0  0  0  0  0  0  0  0  0  0
  -11.3984  -26.5263  -37.2049 H   0  0  0  0  0  0  0  0  0  0  0  0
  -11.4815  -24.7952  -33.2497 H   0  0  0  0  0  0  0  0  0  0  0  0
   -9.9144  -24.9691  -34.0348 H   0  0  0  0  0  0  0  0  0  0  0  0
  -11.6761  -28.3186  -35.5447 H   0  0  0  0  0  0  0  0  0  0  0  0
  -10.1152  -28.4727  -36.3131 H   0  0  0  0  0  0  0  0  0  0  0  0
  -10.1975  -26.7495  -32.3798 H   0  0  0  0  0  0  0  0  0  0  0  0
  -11.7276  -27.2356  -33.0682 H   0  0  0  0  0  0  0  0  0  0  0  0
  -11.5437  -24.4631  -35.7537 H   0  0  0  0  0  0  0  0  0  0  0  0
   -8.9762  -27.4436  -34.4013 H   0  0  0  0  0  0  0  0  0  0  0  0
  -15.2515  -26.3920  -34.9116 H   0  0  0  0  0  0  0  0  0  0  0  0
  -13.2799  -26.3754  -34.4271 H   0  0  0  0  0  0  0  0  0  0  0  0
  1  3  1  0  0  0  0
  1  9  2  0  0  0  0
  2  4  2  0  0  0  0
  2  9  1  0  0  0  0
  3 10  2  0  0  0  0
  4 10  1  0  0  0  0
  5  7  1  0  0  0  0
  5 11  2  0  0  0  0
  6  8  2  0  0  0  0
  6 11  1  0  0  0  0
  7 12  2  0  0  0  0
  8 12  1  0  0  0  0
  9 20  1  0  0  0  0
 10 21  1  0  0  0  0
 11 24  1  0  0  0  0
 12 25  1  0  0  0  0
 13 21  1  0  0  0  0
 13 22  1  0  0  0  0
 13 23  2  0  0  0  0
 14 16  1  0  0  0  0
 14 18  1  0  0  0  0
 15 17  1  0  0  0  0
 15 18  1  0  0  0  0
 16 19  1  0  0  0  0
 17 19  1  0  0  0  0
 18 22  1  0  0  0  0
 19 24  1  0  0  0  0
 20 26  1  0  0  0  0
 20 27  1  0  0  0  0
 20 28  1  0  0  0  0
  1 29  1  0  0  0  0
  2 30  1  0  0  0  0
  3 31  1  0  0  0  0
  4 32  1  0  0  0  0
  5 33  1  0  0  0  0
  6 34  1  0  0  0  0
  7 35  1  0  0  0  0
  8 36  1  0  0  0  0
 14 37  1  0  0  0  0
 14 38  1  0  0  0  0
 15 39  1  0  0  0  0
 15 40  1  0  0  0  0
 16 41  1  0  0  0  0
 16 42  1  0  0  0  0
 17 43  1  0  0  0  0
 17 44  1  0  0  0  0
 18 45  1  0  0  0  0
 19 46  1  0  0  0  0
 21 47  1  0  0  0  0
 22 48  1  0  0  0  0
M  END
> <SourceTag>
A_121

> <Gold.Version>
5.2

> <Gold.Id.Protein>
6HGV|6HGV_protein|mol2

> <Gold.Goldscore.Fitness>
66.0656

> <Gold.Goldscore.Internal.Vdw>
0.3705

> <Gold.Goldscore.Internal.Torsion>
-5.7265

> <Gold.Goldscore.External.Vdw>
48.1990

> <Gold.Goldscore.Internal.HBond>
0.0000

> <Gold.Goldscore.External.HBond>
0.7384

> <Gold.Goldscore.Internal.Correction>
-4.4097

> <Gold.Goldscore.Hbonds>
donor molecule, donor type, donor heavy atom, donor atom, acceptor molecule, acceptor atom, score
      P1  H  1931  4507       L1    23  0.37

> <Gold.Goldscore.Internal.Vdw.Weighted>
0.3705

> <Gold.Goldscore.Internal.Torsion.Weighted>
-5.7265

> <Gold.Goldscore.External.Vdw.Weighted>
66.2736

> <Gold.Goldscore.Internal.HBond.Weighted>
0.0000

> <Gold.Goldscore.External.HBond.Weighted>
0.7384

> <Gold.Goldscore.Internal.Correction.Weighted>
-4.4097

> <Gold.Protein.RotatedTorsions>
[ 3781 1176 1175 1172 ] final    7.29 input   60.00 | X-H torsion
[ 3847 1247 1246 1244 ] final  141.07 input   60.00 | X-H torsion
[ 4507 1931 1930 1928 ] final   34.33 input   60.00 | X-H torsion
[ 3677 1070 1069 1066 ] final  -55.07 input   60.00 | X-H torsion
[ 3525  925  924  922 ] final  -20.75 input   59.99 | X-H torsion
[ 4531 1957 1955 1953 ] final   14.58 input   60.00 | X-H torsion

> <Gold.Protein.ActiveResidues>
 PHE267  PRO268  MET310  ASP335  TRP336  MET339  TYR343  THR360  PRO361  ILE363 
 PRO371  SER374  ILE375  ASN378  PHE381  TYR383  GLN384  PHE387  LEU408  LEU417 
 MET419  LEU428  TYR466  MET469  ASN472  ASP496  VAL498  LEU499  MET503  HIS524 
 TRP525 

> <Gold.Protein.RotatedAtoms>
   -3.7371  -29.5128  -30.1706 H   0  0  0  0  0  0  0  0  0  0  0  0  # atno 3525 bound_to 925 
  -12.3866  -23.8056  -31.1258 H   0  0  0  0  0  0  0  0  0  0  0  0  # atno 3677 bound_to 1070
  -10.8215  -37.2904  -33.5657 H   0  0  0  0  0  0  0  0  0  0  0  0  # atno 3781 bound_to 1176
  -14.3389  -27.9673  -37.8801 H   0  0  0  0  0  0  0  0  0  0  0  0  # atno 3847 bound_to 1247
  -12.8836  -25.0029  -38.8218 H   0  0  0  0  0  0  0  0  0  0  0  0  # atno 4507 bound_to 1931
   -2.9916  -32.6952  -36.6668 H   0  0  0  0  0  0  0  0  0  0  0  0  # atno 4531 bound_to 1957
   -9.5405  -36.3273  -33.8474 LP  0  0  0  0  0  0  0  0  0  0  0  0  # atno 5205 bound_to 1176
   -9.7432  -37.0125  -32.3791 LP  0  0  0  0  0  0  0  0  0  0  0  0  # atno 5206 bound_to 1176
  -15.4198  -28.8982  -37.0971 LP  0  0  0  0  0  0  0  0  0  0  0  0  # atno 5215 bound_to 1247
  -15.8118  -27.3724  -37.5269 LP  0  0  0  0  0  0  0  0  0  0  0  0  # atno 5216 bound_to 1247
  -13.6849  -24.9563  -40.2373 LP  0  0  0  0  0  0  0  0  0  0  0  0  # atno 5217 bound_to 1931
  -12.6276  -23.7720  -39.8549 LP  0  0  0  0  0  0  0  0  0  0  0  0  # atno 5218 bound_to 1931
  -11.0847  -22.8335  -31.2152 LP  0  0  0  0  0  0  0  0  0  0  0  0  # atno 5224 bound_to 1070
  -12.3797  -22.3888  -30.3253 LP  0  0  0  0  0  0  0  0  0  0  0  0  # atno 5225 bound_to 1070

$$$$
A_126|SEH_inhibs_minimized|sdf|14|dock2
  -GOLD-   41821 9173D 1   1.00000     0.00000

 53 57  0  0  0  0  0  0  0  0  1 V2000
  -16.0982  -24.6435  -36.5353 C   0  0  0  0  0  0  0  0  0  0  0  0
  -15.3753  -23.7620  -37.3389 C   0  0  0  0  0  0  0  0  0  0  0  0
  -15.4995  -25.8144  -36.0703 C   0  0  0  0  0  0  0  0  0  0  0  0
  -10.0821  -25.2070  -34.5422 C   0  0  0  0  0  0  0  0  0  0  0  0
   -9.5300  -26.4862  -34.4757 C   0  0  0  0  0  0  0  0  0  0  0  0
  -14.0534  -24.0514  -37.6776 C   0  0  0  0  0  0  0  0  0  0  0  0
  -14.1776  -26.1038  -36.4090 C   0  0  0  0  0  0  0  0  0  0  0  0
  -10.9603  -24.8792  -35.5752 C   0  0  0  0  0  0  0  0  0  0  0  0
  -10.7339  -27.1098  -36.4754 C   0  0  0  0  0  0  0  0  0  0  0  0
   -9.8559  -27.4376  -35.4423 C   0  0  0  0  0  0  0  0  0  0  0  0
  -13.4546  -25.2222  -37.2127 C   0  0  0  0  0  0  0  0  0  0  0  0
  -11.2862  -25.8306  -36.5419 C   0  0  0  0  0  0  0  0  0  0  0  0
   -8.0911  -29.1186  -34.7789 C   0  0  0  0  0  0  0  0  0  0  0  0
   -4.1561  -31.1662  -32.9611 C   0  0  0  0  0  0  0  0  0  0  0  0
   -4.3108  -32.8288  -34.8323 C   0  0  0  0  0  0  0  0  0  0  0  0
   -5.5219  -33.2505  -32.6771 C   0  0  0  0  0  0  0  0  0  0  0  0
   -5.4461  -30.6023  -35.0361 C   0  0  0  0  0  0  0  0  0  0  0  0
   -6.6583  -31.0245  -32.8786 C   0  0  0  0  0  0  0  0  0  0  0  0
   -6.8136  -32.6900  -34.7523 C   0  0  0  0  0  0  0  0  0  0  0  0
   -4.2077  -31.3329  -34.4891 C   0  0  0  0  0  0  0  0  0  0  0  0
   -5.4247  -31.7569  -32.3229 C   0  0  0  0  0  0  0  0  0  0  0  0
   -5.5804  -33.4285  -34.2039 C   0  0  0  0  0  0  0  0  0  0  0  0
   -6.7339  -31.1858  -34.4131 C   0  0  0  0  0  0  0  0  0  0  0  0
   -9.2959  -28.7346  -35.3743 N   0  0  0  0  0  0  0  0  0  0  0  0
   -7.8958  -30.4946  -34.9275 N   0  0  0  0  0  0  0  0  0  0  0  0
   -7.2936  -28.3849  -34.1998 O   0  0  0  0  0  0  0  0  0  0  0  0
  -12.1429  -25.5108  -37.5500 O   0  0  0  0  0  0  0  0  0  0  0  0
  -17.1273  -24.4182  -36.2710 H   0  0  0  0  0  0  0  0  0  0  0  0
  -15.8415  -22.8503  -37.7012 H   0  0  0  0  0  0  0  0  0  0  0  0
  -16.0631  -26.5003  -35.4445 H   0  0  0  0  0  0  0  0  0  0  0  0
   -9.8289  -24.4668  -33.7890 H   0  0  0  0  0  0  0  0  0  0  0  0
   -8.8464  -26.7302  -33.6665 H   0  0  0  0  0  0  0  0  0  0  0  0
  -13.4961  -23.3613  -38.3052 H   0  0  0  0  0  0  0  0  0  0  0  0
  -13.7169  -27.0182  -36.0454 H   0  0  0  0  0  0  0  0  0  0  0  0
  -11.3873  -23.8813  -35.6208 H   0  0  0  0  0  0  0  0  0  0  0  0
  -10.9915  -27.8485  -37.2311 H   0  0  0  0  0  0  0  0  0  0  0  0
   -3.2670  -31.6678  -32.5597 H   0  0  0  0  0  0  0  0  0  0  0  0
   -4.0664  -30.1040  -32.7027 H   0  0  0  0  0  0  0  0  0  0  0  0
   -4.3324  -32.9628  -35.9207 H   0  0  0  0  0  0  0  0  0  0  0  0
   -3.4245  -33.3593  -34.4635 H   0  0  0  0  0  0  0  0  0  0  0  0
   -4.6567  -33.7884  -32.2706 H   0  0  0  0  0  0  0  0  0  0  0  0
   -6.4150  -33.6881  -32.2144 H   0  0  0  0  0  0  0  0  0  0  0  0
   -5.3704  -29.5288  -34.8186 H   0  0  0  0  0  0  0  0  0  0  0  0
   -5.4794  -30.6925  -36.1300 H   0  0  0  0  0  0  0  0  0  0  0  0
   -7.5690  -31.4202  -32.4100 H   0  0  0  0  0  0  0  0  0  0  0  0
   -6.6124  -29.9607  -32.6103 H   0  0  0  0  0  0  0  0  0  0  0  0
   -6.8801  -32.8313  -35.8390 H   0  0  0  0  0  0  0  0  0  0  0  0
   -7.7273  -33.1279  -34.3289 H   0  0  0  0  0  0  0  0  0  0  0  0
   -3.3013  -30.9119  -34.9382 H   0  0  0  0  0  0  0  0  0  0  0  0
   -5.3820  -31.6365  -31.2346 H   0  0  0  0  0  0  0  0  0  0  0  0
   -5.6474  -34.4940  -34.4500 H   0  0  0  0  0  0  0  0  0  0  0  0
   -9.8396  -29.4738  -35.8126 H   0  0  0  0  0  0  0  0  0  0  0  0
   -8.6012  -31.0332  -35.4187 H   0  0  0  0  0  0  0  0  0  0  0  0
  1  2  2  0  0  0  0
  1  3  1  0  0  0  0
  2  6  1  0  0  0  0
  3  7  2  0  0  0  0
  4  5  2  0  0  0  0
  4  8  1  0  0  0  0
  5 10  1  0  0  0  0
  6 11  2  0  0  0  0
  7 11  1  0  0  0  0
  8 12  2  0  0  0  0
  9 10  2  0  0  0  0
  9 12  1  0  0  0  0
 10 24  1  0  0  0  0
 11 27  1  0  0  0  0
 12 27  1  0  0  0  0
 13 24  1  0  0  0  0
 13 25  1  0  0  0  0
 13 26  2  0  0  0  0
 14 20  1  0  0  0  0
 14 21  1  0  0  0  0
 15 20  1  0  0  0  0
 15 22  1  0  0  0  0
 16 21  1  0  0  0  0
 16 22  1  0  0  0  0
 17 20  1  0  0  0  0
 17 23  1  0  0  0  0
 18 21  1  0  0  0  0
 18 23  1  0  0  0  0
 19 22  1  0  0  0  0
 19 23  1  0  0  0  0
 23 25  1  0  0  0  0
  1 28  1  0  0  0  0
  2 29  1  0  0  0  0
  3 30  1  0  0  0  0
  4 31  1  0  0  0  0
  5 32  1  0  0  0  0
  6 33  1  0  0  0  0
  7 34  1  0  0  0  0
  8 35  1  0  0  0  0
  9 36  1  0  0  0  0
 14 37  1  0  0  0  0
 14 38  1  0  0  0  0
 15 39  1  0  0  0  0
 15 40  1  0  0  0  0
 16 41  1  0  0  0  0
 16 42  1  0  0  0  0
 17 43  1  0  0  0  0
 17 44  1  0  0  0  0
 18 45  1  0  0  0  0
 18 46  1  0  0  0  0
 19 47  1  0  0  0  0
 19 48  1  0  0  0  0
 20 49  1  0  0  0  0
 21 50  1  0  0  0  0
 22 51  1  0  0  0  0
 24 52  1  0  0  0  0
 25 53  1  0  0  0  0
M  END
> <Name>
A_126

> <SourceTag>
A_126

> <Gold.Version>
5.2

> <Gold.Id.Protein>
6HGV|6HGV_protein|mol2

> <Gold.Goldscore.Fitness>
73.4975

> <Gold.Goldscore.Internal.Vdw>
-1.0390

> <Gold.Goldscore.Internal.Torsion>
-5.2419

> <Gold.Goldscore.External.Vdw>
53.8411

> <Gold.Goldscore.Internal.HBond>
0.0000

> <Gold.Goldscore.External.HBond>
0.0000

> <Gold.Goldscore.Internal.Correction>
-5.7470

> <Gold.Goldscore.Internal.Vdw.Weighted>
-1.0390

> <Gold.Goldscore.Internal.Torsion.Weighted>
-5.2419

> <Gold.Goldscore.External.Vdw.Weighted>
74.0315

> <Gold.Goldscore.Internal.HBond.Weighted>
0.0000

> <Gold.Goldscore.External.HBond.Weighted>
0.0000

> <Gold.Goldscore.Internal.Correction.Weighted>
-5.7470

> <Gold.Protein.RotatedTorsions>
[ 3781 1176 1175 1172 ] final  118.33 input   60.00 | X-H torsion
[ 3847 1247 1246 1244 ] final    9.56 input   60.00 | X-H torsion
[ 4507 1931 1930 1928 ] final  -95.71 input   60.00 | X-H torsion
[ 3677 1070 1069 1066 ] final -114.81 input   60.00 | X-H torsion
[ 3525  925  924  922 ] final  -28.50 input   59.99 | X-H torsion
[ 4531 1957 1955 1953 ] final  129.71 input   60.00 | X-H torsion

> <Gold.Protein.ActiveResidues>
 PHE267  PRO268  MET310  ASP335  TRP336  MET339  TYR343  THR360  PRO361  ILE363 
 PRO371  SER374  ILE375  ASN378  PHE381  TYR383  GLN384  PHE387  LEU408  LEU417 
 MET419  LEU428  TYR466  MET469  ASN472  ASP496  VAL498  LEU499  MET503  HIS524 
 TRP525 

> <Gold.Protein.RotatedAtoms>
   -3.7625  -29.5130  -30.0467 H   0  0  0  0  0  0  0  0  0  0  0  0  # atno 3525 bound_to 925 
  -11.5290  -23.6320  -31.4486 H   0  0  0  0  0  0  0  0  0  0  0  0  # atno 3677 bound_to 1070
   -9.8625  -37.0979  -32.3717 H   0  0  0  0  0  0  0  0  0  0  0  0  # atno 3781 bound_to 1176
  -15.5835  -28.8091  -37.0696 H   0  0  0  0  0  0  0  0  0  0  0  0  # atno 3847 bound_to 1247
  -13.6437  -24.8259  -40.3289 H   0  0  0  0  0  0  0  0  0  0  0  0  # atno 4507 bound_to 1931
   -2.2243  -34.0665  -36.8364 H   0  0  0  0  0  0  0  0  0  0  0  0  # atno 4531 bound_to 1957
  -10.8004  -37.2248  -33.6954 LP  0  0  0  0  0  0  0  0  0  0  0  0  # atno 5205 bound_to 1176
   -9.4490  -36.3089  -33.7335 LP  0  0  0  0  0  0  0  0  0  0  0  0  # atno 5206 bound_to 1176
  -15.6740  -27.2792  -37.6167 LP  0  0  0  0  0  0  0  0  0  0  0  0  # atno 5215 bound_to 1247
  -14.3041  -28.1437  -37.8236 LP  0  0  0  0  0  0  0  0  0  0  0  0  # atno 5216 bound_to 1247
  -12.5537  -23.7892  -39.7084 LP  0  0  0  0  0  0  0  0  0  0  0  0  # atno 5217 bound_to 1931
  -12.9933  -25.1173  -38.8660 LP  0  0  0  0  0  0  0  0  0  0  0  0  # atno 5218 bound_to 1931
  -11.5094  -22.2126  -30.6529 LP  0  0  0  0  0  0  0  0  0  0  0  0  # atno 5224 bound_to 1070
  -12.8186  -23.1845  -30.5626 LP  0  0  0  0  0  0  0  0  0  0  0  0  # atno 5225 bound_to 1070

$$$$
A_81|SEH_inhibs_minimized|sdf|49|dock3
  -GOLD-   4182110373D 1   1.00000     0.00000

 59 61  0  0  0  0  0  0  0  0  1 V2000
   -5.1043  -36.4641  -33.4160 C   0  0  0  0  0  0  0  0  0  0  0  0
   -5.0357  -35.1078  -33.7342 C   0  0  0  0  0  0  0  0  0  0  0  0
   -5.3872  -35.9028  -31.0833 C   0  0  0  0  0  0  0  0  0  0  0  0
   -5.2801  -36.8616  -32.0905 C   0  0  0  0  0  0  0  0  0  0  0  0
   -5.3185  -34.5464  -31.4013 C   0  0  0  0  0  0  0  0  0  0  0  0
   -5.1427  -34.1490  -32.7268 C   0  0  0  0  0  0  0  0  0  0  0  0
   -8.9543  -29.9515  -35.6367 C   0  0  0  0  0  0  0  0  0  0  0  0
  -12.1519  -25.2360  -34.9749 C   0  0  0  0  0  0  0  0  0  0  0  0
  -10.9671  -25.0618  -34.0309 C   0  0  0  0  0  0  0  0  0  0  0  0
  -11.8277  -25.8925  -36.3159 C   0  0  0  0  0  0  0  0  0  0  0  0
  -10.1944  -26.3402  -33.7089 C   0  0  0  0  0  0  0  0  0  0  0  0
  -11.5506  -27.3878  -36.1868 C   0  0  0  0  0  0  0  0  0  0  0  0
   -9.3598  -26.8378  -34.8880 C   0  0  0  0  0  0  0  0  0  0  0  0
   -8.1606  -32.3340  -35.7361 C   0  0  0  0  0  0  0  0  0  0  0  0
   -8.8895  -31.2738  -33.5528 C   0  0  0  0  0  0  0  0  0  0  0  0
   -6.7076  -32.1733  -35.2933 C   0  0  0  0  0  0  0  0  0  0  0  0
   -7.4182  -31.1200  -33.1757 C   0  0  0  0  0  0  0  0  0  0  0  0
   -9.1101  -31.3499  -35.0613 C   0  0  0  0  0  0  0  0  0  0  0  0
  -10.0982  -27.7557  -35.8674 C   0  0  0  0  0  0  0  0  0  0  0  0
   -5.3534  -38.3123  -31.7510 C   0  0  0  0  0  0  0  0  0  0  0  0
   -5.4374  -33.5450  -30.2993 C   0  0  0  0  0  0  0  0  0  0  0  0
   -6.6260  -32.2147  -33.8054 N   0  0  0  0  0  0  0  0  0  0  0  0
  -10.0380  -29.1283  -35.4077 N   0  0  0  0  0  0  0  0  0  0  0  0
   -7.9274  -29.6560  -36.2367 O   0  0  0  0  0  0  0  0  0  0  0  0
   -4.9264  -31.6766  -31.9434 O   0  0  0  0  0  0  0  0  0  0  0  0
   -4.0874  -32.3054  -34.2342 O   0  0  0  0  0  0  0  0  0  0  0  0
   -5.0522  -32.4414  -33.1648 S   0  0  0  0  0  0  0  0  0  0  0  0
   -5.0197  -37.2044  -34.2071 H   0  0  0  0  0  0  0  0  0  0  0  0
   -4.8983  -34.8107  -34.7704 H   0  0  0  0  0  0  0  0  0  0  0  0
   -5.5243  -36.2150  -30.0505 H   0  0  0  0  0  0  0  0  0  0  0  0
  -12.9398  -25.8058  -34.4667 H   0  0  0  0  0  0  0  0  0  0  0  0
  -12.5751  -24.2427  -35.1707 H   0  0  0  0  0  0  0  0  0  0  0  0
  -10.2813  -24.3117  -34.4442 H   0  0  0  0  0  0  0  0  0  0  0  0
  -11.3447  -24.6411  -33.0903 H   0  0  0  0  0  0  0  0  0  0  0  0
  -12.7090  -25.7708  -36.9584 H   0  0  0  0  0  0  0  0  0  0  0  0
  -11.0030  -25.3758  -36.8200 H   0  0  0  0  0  0  0  0  0  0  0  0
   -9.5050  -26.1039  -32.8883 H   0  0  0  0  0  0  0  0  0  0  0  0
  -10.8656  -27.1210  -33.3338 H   0  0  0  0  0  0  0  0  0  0  0  0
  -12.2305  -27.8255  -35.4435 H   0  0  0  0  0  0  0  0  0  0  0  0
  -11.8146  -27.8740  -37.1362 H   0  0  0  0  0  0  0  0  0  0  0  0
   -8.9584  -25.9759  -35.4362 H   0  0  0  0  0  0  0  0  0  0  0  0
   -8.4839  -27.3707  -34.4941 H   0  0  0  0  0  0  0  0  0  0  0  0
   -8.2172  -32.2347  -36.8274 H   0  0  0  0  0  0  0  0  0  0  0  0
   -8.4842  -33.3559  -35.4949 H   0  0  0  0  0  0  0  0  0  0  0  0
   -9.2742  -32.1934  -33.0914 H   0  0  0  0  0  0  0  0  0  0  0  0
   -9.4607  -30.4416  -33.1223 H   0  0  0  0  0  0  0  0  0  0  0  0
   -6.1180  -32.9961  -35.7128 H   0  0  0  0  0  0  0  0  0  0  0  0
   -6.2855  -31.2313  -35.6605 H   0  0  0  0  0  0  0  0  0  0  0  0
   -7.0289  -30.1475  -33.4971 H   0  0  0  0  0  0  0  0  0  0  0  0
   -7.3247  -31.1825  -32.0858 H   0  0  0  0  0  0  0  0  0  0  0  0
  -10.1391  -31.6357  -35.2562 H   0  0  0  0  0  0  0  0  0  0  0  0
   -9.5271  -27.7495  -36.8045 H   0  0  0  0  0  0  0  0  0  0  0  0
   -5.6042  -38.9006  -32.6420 H   0  0  0  0  0  0  0  0  0  0  0  0
   -4.3983  -38.6763  -31.3510 H   0  0  0  0  0  0  0  0  0  0  0  0
   -6.1134  -38.5034  -30.9822 H   0  0  0  0  0  0  0  0  0  0  0  0
   -4.5018  -32.9840  -30.1937 H   0  0  0  0  0  0  0  0  0  0  0  0
   -6.2507  -32.8355  -30.4949 H   0  0  0  0  0  0  0  0  0  0  0  0
   -5.6625  -34.0334  -29.3431 H   0  0  0  0  0  0  0  0  0  0  0  0
  -10.8286  -29.5014  -34.8939 H   0  0  0  0  0  0  0  0  0  0  0  0
  1  2  2  0  0  0  0
  1  4  1  0  0  0  0
  2  6  1  0  0  0  0
  3  4  2  0  0  0  0
  3  5  1  0  0  0  0
  4 20  1  0  0  0  0
  5  6  2  0  0  0  0
  5 21  1  0  0  0  0
  6 27  1  0  0  0  0
  7 18  1  0  0  0  0
  7 23  1  0  0  0  0
  7 24  2  0  0  0  0
  8  9  1  0  0  0  0
  8 10  1  0  0  0  0
  9 11  1  0  0  0  0
 10 12  1  0  0  0  0
 11 13  1  0  0  0  0
 12 19  1  0  0  0  0
 13 19  1  0  0  0  0
 14 16  1  0  0  0  0
 14 18  1  0  0  0  0
 15 17  1  0  0  0  0
 15 18  1  0  0  0  0
 16 22  1  0  0  0  0
 17 22  1  0  0  0  0
 19 23  1  0  0  0  0
 22 27  1  0  0  0  0
 25 27  2  0  0  0  0
 26 27  2  0  0  0  0
  1 28  1  0  0  0  0
  2 29  1  0  0  0  0
  3 30  1  0  0  0  0
  8 31  1  0  0  0  0
  8 32  1  0  0  0  0
  9 33  1  0  0  0  0
  9 34  1  0  0  0  0
 10 35  1  0  0  0  0
 10 36  1  0  0  0  0
 11 37  1  0  0  0  0
 11 38  1  0  0  0  0
 12 39  1  0  0  0  0
 12 40  1  0  0  0  0
 13 41  1  0  0  0  0
 13 42  1  0  0  0  0
 14 43  1  0  0  0  0
 14 44  1  0  0  0  0
 15 45  1  0  0  0  0
 15 46  1  0  0  0  0
 16 47  1  0  0  0  0
 16 48  1  0  0  0  0
 17 49  1  0  0  0  0
 17 50  1  0  0  0  0
 18 51  1  0  0  0  0
 19 52  1  0  0  0  0
 20 53  1  0  0  0  0
 20 54  1  0  0  0  0
 20 55  1  0  0  0  0
 21 56  1  0  0  0  0
 21 57  1  0  0  0  0
 21 58  1  0  0  0  0
 23 59  1  0  0  0  0
M  END
> <Name>
A_81

> <SourceTag>
A_81

> <Gold.Version>
5.2

> <Gold.Id.Protein>
6HGV|6HGV_protein|mol2

> <Gold.Goldscore.Fitness>
58.2959

> <Gold.Goldscore.Internal.Vdw>
-4.7136

> <Gold.Goldscore.Internal.Torsion>
-5.9971

> <Gold.Goldscore.External.Vdw>
46.7028

> <Gold.Goldscore.Internal.HBond>
0.0000

> <Gold.Goldscore.External.HBond>
0.1589

> <Gold.Goldscore.Internal.Correction>
-4.6314

> <Gold.Goldscore.Hbonds>
donor molecule, donor type, donor heavy atom, donor atom, acceptor molecule, acceptor atom, score
      P1  H  1957  4531       L1    26  0.08

> <Gold.Goldscore.Internal.Vdw.Weighted>
-4.7136

> <Gold.Goldscore.Internal.Torsion.Weighted>
-5.9971

> <Gold.Goldscore.External.Vdw.Weighted>
64.2164

> <Gold.Goldscore.Internal.HBond.Weighted>
0.0000

> <Gold.Goldscore.External.HBond.Weighted>
0.1589

> <Gold.Goldscore.Internal.Correction.Weighted>
-4.6314

> <Gold.Protein.RotatedTorsions>
[ 3781 1176 1175 1172 ] final -155.44 input   60.00 | X-H torsion
[ 3847 1247 1246 1244 ] final   94.51 input   60.00 | X-H torsion
[ 4507 1931 1930 1928 ] final  146.17 input   60.00 | X-H torsion
[ 3677 1070 1069 1066 ] final  -72.86 input   60.00 | X-H torsion
[ 3525  925  924  922 ] final  -29.90 input   59.99 | X-H torsion
[ 4531 1957 1955 1953 ] final   16.97 input   60.00 | X-H torsion

> <Gold.Protein.ActiveResidues>
 PHE267  PRO268  MET310  ASP335  TRP336  MET339  TYR343  THR360  PRO361  ILE363 
 PRO371  SER374  ILE375  ASN378  PHE381  TYR383  GLN384  PHE387  LEU408  LEU417 
 MET419  LEU428  TYR466  MET469  ASN472  ASP496  VAL498  LEU499  MET503  HIS524 
 TRP525 

> <Gold.Protein.RotatedAtoms>
   -3.7654  -29.5138  -30.0240 H   0  0  0  0  0  0  0  0  0  0  0  0  # atno 3525 bound_to 925 
  -12.1390  -23.8456  -31.2703 H   0  0  0  0  0  0  0  0  0  0  0  0  # atno 3677 bound_to 1070
   -9.2515  -36.3694  -33.2282 H   0  0  0  0  0  0  0  0  0  0  0  0  # atno 3781 bound_to 1176
  -14.4412  -28.6375  -37.5836 H   0  0  0  0  0  0  0  0  0  0  0  0  # atno 3847 bound_to 1247
  -12.5681  -23.7909  -39.7364 H   0  0  0  0  0  0  0  0  0  0  0  0  # atno 4507 bound_to 1931
   -3.0089  -32.7300  -36.6641 H   0  0  0  0  0  0  0  0  0  0  0  0  # atno 4531 bound_to 1957
  -10.3258  -37.3543  -32.5043 LP  0  0  0  0  0  0  0  0  0  0  0  0  # atno 5205 bound_to 1176
  -10.5389  -36.9130  -34.0620 LP  0  0  0  0  0  0  0  0  0  0  0  0  # atno 5206 bound_to 1176
  -15.9676  -28.3935  -37.0751 LP  0  0  0  0  0  0  0  0  0  0  0  0  # atno 5215 bound_to 1247
  -15.1609  -27.2021  -37.8475 LP  0  0  0  0  0  0  0  0  0  0  0  0  # atno 5216 bound_to 1247
  -12.9726  -25.0974  -38.8547 LP  0  0  0  0  0  0  0  0  0  0  0  0  # atno 5217 bound_to 1931
  -13.6576  -24.8514  -40.3165 LP  0  0  0  0  0  0  0  0  0  0  0  0  # atno 5218 bound_to 1931
  -11.1242  -22.5912  -31.0579 LP  0  0  0  0  0  0  0  0  0  0  0  0  # atno 5224 bound_to 1070
  -12.5896  -22.5908  -30.3372 LP  0  0  0  0  0  0  0  0  0  0  0  0  # atno 5225 bound_to 1070

$$$$
A_33|SEH_inhibs_minimized|sdf|27|dock6
  -GOLD-   41821 9463D 1   1.00000     0.00000

 42 43  0  0  0  0  0  0  0  0  1 V2000
   -9.9222  -32.7330  -35.5500 C   0  0  0  0  0  0  0  0  0  0  0  0
   -8.8125  -33.3808  -36.0925 C   0  0  0  0  0  0  0  0  0  0  0  0
  -10.7591  -25.2365  -35.7227 C   0  0  0  0  0  0  0  0  0  0  0  0
   -9.8070  -31.4223  -35.0866 C   0  0  0  0  0  0  0  0  0  0  0  0
   -7.5876  -32.7181  -36.1715 C   0  0  0  0  0  0  0  0  0  0  0  0
  -11.7856  -24.5540  -36.3662 C   0  0  0  0  0  0  0  0  0  0  0  0
  -12.1836  -27.1354  -35.5765 C   0  0  0  0  0  0  0  0  0  0  0  0
  -10.9539  -26.5521  -35.3171 C   0  0  0  0  0  0  0  0  0  0  0  0
   -8.5822  -30.7596  -35.1657 C   0  0  0  0  0  0  0  0  0  0  0  0
   -7.4725  -31.4075  -35.7081 C   0  0  0  0  0  0  0  0  0  0  0  0
  -12.9782  -25.2267  -36.5787 C   0  0  0  0  0  0  0  0  0  0  0  0
   -9.8769  -27.3081  -34.6275 C   0  0  0  0  0  0  0  0  0  0  0  0
   -8.4777  -29.3567  -34.6651 C   0  0  0  0  0  0  0  0  0  0  0  0
  -16.2750  -24.3719  -37.9458 C   0  0  0  0  0  0  0  0  0  0  0  0
  -15.2090  -25.3092  -37.3992 C   0  0  0  0  0  0  0  0  0  0  0  0
  -15.8038  -23.6258  -39.1723 C   0  0  0  0  0  0  0  0  0  0  0  0
   -5.2777  -31.0807  -34.8200 C   0  0  0  0  0  0  0  0  0  0  0  0
  -13.2044  -26.5043  -36.1992 N   0  0  0  0  0  0  0  0  0  0  0  0
   -9.4908  -28.5001  -35.2256 N   0  0  0  0  0  0  0  0  0  0  0  0
   -9.4085  -26.8658  -33.5819 O   0  0  0  0  0  0  0  0  0  0  0  0
   -6.2687  -30.7749  -35.7935 O   0  0  0  0  0  0  0  0  0  0  0  0
  -14.0049  -24.5752  -37.2105 O   0  0  0  0  0  0  0  0  0  0  0  0
  -16.8097  -22.8913  -39.6965 F   0  0  0  0  0  0  0  0  0  0  0  0
  -14.7917  -22.7828  -38.8766 F   0  0  0  0  0  0  0  0  0  0  0  0
  -15.3741  -24.4749  -40.1297 F   0  0  0  0  0  0  0  0  0  0  0  0
   -5.6893  -30.7352  -33.5816 F   0  0  0  0  0  0  0  0  0  0  0  0
   -4.1604  -30.3720  -35.1001 F   0  0  0  0  0  0  0  0  0  0  0  0
   -4.9564  -32.3915  -34.8478 F   0  0  0  0  0  0  0  0  0  0  0  0
  -10.8761  -33.2488  -35.4884 H   0  0  0  0  0  0  0  0  0  0  0  0
   -8.9020  -34.4012  -36.4534 H   0  0  0  0  0  0  0  0  0  0  0  0
   -9.8125  -24.7339  -35.5425 H   0  0  0  0  0  0  0  0  0  0  0  0
  -10.6777  -30.9261  -34.6655 H   0  0  0  0  0  0  0  0  0  0  0  0
   -6.7274  -33.2285  -36.5958 H   0  0  0  0  0  0  0  0  0  0  0  0
  -11.6493  -23.5270  -36.6875 H   0  0  0  0  0  0  0  0  0  0  0  0
  -12.3950  -28.1599  -35.2851 H   0  0  0  0  0  0  0  0  0  0  0  0
   -8.5799  -29.3195  -33.5722 H   0  0  0  0  0  0  0  0  0  0  0  0
   -7.5023  -28.9154  -34.9090 H   0  0  0  0  0  0  0  0  0  0  0  0
  -17.1790  -24.9448  -38.1842 H   0  0  0  0  0  0  0  0  0  0  0  0
  -16.5695  -23.6582  -37.1672 H   0  0  0  0  0  0  0  0  0  0  0  0
  -15.5142  -25.7298  -36.4358 H   0  0  0  0  0  0  0  0  0  0  0  0
  -15.0112  -26.1277  -38.0986 H   0  0  0  0  0  0  0  0  0  0  0  0
   -9.9713  -28.8295  -36.0593 H   0  0  0  0  0  0  0  0  0  0  0  0
  1  2  2  0  0  0  0
  1  4  1  0  0  0  0
  2  5  1  0  0  0  0
  3  6  1  0  0  0  0
  3  8  2  0  0  0  0
  4  9  2  0  0  0  0
  5 10  2  0  0  0  0
  6 11  2  0  0  0  0
  7  8  1  0  0  0  0
  7 18  2  0  0  0  0
  8 12  1  0  0  0  0
  9 10  1  0  0  0  0
  9 13  1  0  0  0  0
 10 21  1  0  0  0  0
 11 18  1  0  0  0  0
 11 22  1  0  0  0  0
 12 19  1  0  0  0  0
 12 20  2  0  0  0  0
 13 19  1  0  0  0  0
 14 15  1  0  0  0  0
 14 16  1  0  0  0  0
 15 22  1  0  0  0  0
 16 23  1  0  0  0  0
 16 24  1  0  0  0  0
 16 25  1  0  0  0  0
 17 21  1  0  0  0  0
 17 26  1  0  0  0  0
 17 27  1  0  0  0  0
 17 28  1  0  0  0  0
  1 29  1  0  0  0  0
  2 30  1  0  0  0  0
  3 31  1  0  0  0  0
  4 32  1  0  0  0  0
  5 33  1  0  0  0  0
  6 34  1  0  0  0  0
  7 35  1  0  0  0  0
 13 36  1  0  0  0  0
 13 37  1  0  0  0  0
 14 38  1  0  0  0  0
 14 39  1  0  0  0  0
 15 40  1  0  0  0  0
 15 41  1  0  0  0  0
 19 42  1  0  0  0  0
M  END
> <Name>
A_33

> <SourceTag>
A_33

> <Gold.Version>
5.2

> <Gold.Id.Protein>
6HGV|6HGV_protein|mol2

> <Gold.Goldscore.Fitness>
54.0179

> <Gold.Goldscore.Internal.Vdw>
1.0220

> <Gold.Goldscore.Internal.Torsion>
-8.1570

> <Gold.Goldscore.External.Vdw>
41.1354

> <Gold.Goldscore.Internal.HBond>
0.0000

> <Gold.Goldscore.External.HBond>
0.0000

> <Gold.Goldscore.Internal.Correction>
-4.5917

> <Gold.Goldscore.Internal.Vdw.Weighted>
1.0220

> <Gold.Goldscore.Internal.Torsion.Weighted>
-8.1570

> <Gold.Goldscore.External.Vdw.Weighted>
56.5612

> <Gold.Goldscore.Internal.HBond.Weighted>
0.0000

> <Gold.Goldscore.External.HBond.Weighted>
0.0000

> <Gold.Goldscore.Internal.Correction.Weighted>
-4.5917

> <Gold.Protein.RotatedTorsions>
[ 3781 1176 1175 1172 ] final  -75.56 input   60.00 | X-H torsion
[ 3847 1247 1246 1244 ] final  117.17 input   60.00 | X-H torsion
[ 4507 1931 1930 1928 ] final -165.28 input   60.00 | X-H torsion
[ 3677 1070 1069 1066 ] final  -83.82 input   60.00 | X-H torsion
[ 3525  925  924  922 ] final  -20.08 input   59.99 | X-H torsion
[ 4531 1957 1955 1953 ] final   42.19 input   60.00 | X-H torsion

> <Gold.Protein.ActiveResidues>
 PHE267  PRO268  MET310  ASP335  TRP336  MET339  TYR343  THR360  PRO361  ILE363 
 PRO371  SER374  ILE375  ASN378  PHE381  TYR383  GLN384  PHE387  LEU408  LEU417 
 MET419  LEU428  TYR466  MET469  ASN472  ASP496  VAL498  LEU499  MET503  HIS524 
 TRP525 

> <Gold.Protein.RotatedAtoms>
   -3.7342  -29.5131  -30.1811 H   0  0  0  0  0  0  0  0  0  0  0  0  # atno 3525 bound_to 925 
  -11.9757  -23.8304  -31.3419 H   0  0  0  0  0  0  0  0  0  0  0  0  # atno 3677 bound_to 1070
  -10.0185  -36.5404  -34.1379 H   0  0  0  0  0  0  0  0  0  0  0  0  # atno 3781 bound_to 1176
  -14.3207  -28.3312  -37.7481 H   0  0  0  0  0  0  0  0  0  0  0  0  # atno 3847 bound_to 1247
  -13.0300  -23.9516  -40.3309 H   0  0  0  0  0  0  0  0  0  0  0  0  # atno 4507 bound_to 1931
   -3.0989  -33.1287  -36.6539 H   0  0  0  0  0  0  0  0  0  0  0  0  # atno 4531 bound_to 1957
   -9.3539  -36.6488  -32.6565 LP  0  0  0  0  0  0  0  0  0  0  0  0  # atno 5205 bound_to 1176
  -10.7384  -37.4462  -32.9937 LP  0  0  0  0  0  0  0  0  0  0  0  0  # atno 5206 bound_to 1176
  -15.7459  -28.6892  -37.0490 LP  0  0  0  0  0  0  0  0  0  0  0  0  # atno 5215 bound_to 1247
  -15.5040  -27.2149  -37.7080 LP  0  0  0  0  0  0  0  0  0  0  0  0  # atno 5216 bound_to 1247
  -12.5318  -24.4598  -38.8675 LP  0  0  0  0  0  0  0  0  0  0  0  0  # atno 5217 bound_to 1931
  -13.6332  -25.3272  -39.7049 LP  0  0  0  0  0  0  0  0  0  0  0  0  # atno 5218 bound_to 1931
  -11.1885  -22.4606  -30.9518 LP  0  0  0  0  0  0  0  0  0  0  0  0  # atno 5224 bound_to 1070
  -12.6896  -22.7367  -30.3711 LP  0  0  0  0  0  0  0  0  0  0  0  0  # atno 5225 bound_to 1070

$$$$
A_95|SEH_inhibs_minimized|sdf|55|dock5
  -GOLD-   4182110443D 1   1.00000     0.00000

 41 43  0  0  0  0  0  0  0  0  1 V2000
  -19.9663  -24.0027  -39.8188 C   0  0  0  0  0  0  0  0  0  0  0  0
  -20.9673  -23.9002  -38.8575 C   0  0  0  0  0  0  0  0  0  0  0  0
  -18.6789  -24.3922  -39.4479 C   0  0  0  0  0  0  0  0  0  0  0  0
  -20.6849  -24.1867  -37.5216 C   0  0  0  0  0  0  0  0  0  0  0  0
  -17.0865  -25.0778  -37.7168 C   0  0  0  0  0  0  0  0  0  0  0  0
  -19.0925  -24.8722  -35.7903 C   0  0  0  0  0  0  0  0  0  0  0  0
  -18.3767  -24.6844  -38.1080 C   0  0  0  0  0  0  0  0  0  0  0  0
  -19.3947  -24.5800  -37.1304 C   0  0  0  0  0  0  0  0  0  0  0  0
  -16.8041  -25.3641  -36.3810 C   0  0  0  0  0  0  0  0  0  0  0  0
  -17.8051  -25.2616  -35.4195 C   0  0  0  0  0  0  0  0  0  0  0  0
  -14.2849  -25.3157  -36.5612 C   0  0  0  0  0  0  0  0  0  0  0  0
  -10.1994  -26.7407  -34.0081 C   0  0  0  0  0  0  0  0  0  0  0  0
  -10.9723  -25.4304  -33.8834 C   0  0  0  0  0  0  0  0  0  0  0  0
  -10.8413  -27.6866  -35.0195 C   0  0  0  0  0  0  0  0  0  0  0  0
  -11.1663  -24.7598  -35.2441 C   0  0  0  0  0  0  0  0  0  0  0  0
  -11.0352  -27.0108  -36.3776 C   0  0  0  0  0  0  0  0  0  0  0  0
  -11.8109  -25.6903  -36.2801 C   0  0  0  0  0  0  0  0  0  0  0  0
  -15.4948  -25.7586  -36.0194 N   0  0  0  0  0  0  0  0  0  0  0  0
  -13.2091  -25.9485  -35.9292 N   0  0  0  0  0  0  0  0  0  0  0  0
  -14.1437  -24.4917  -37.4618 O   0  0  0  0  0  0  0  0  0  0  0  0
  -17.5490  -25.5375  -34.1093 O   0  0  0  0  0  0  0  0  0  0  0  0
  -20.1871  -23.7798  -40.8586 H   0  0  0  0  0  0  0  0  0  0  0  0
  -21.9693  -23.5976  -39.1470 H   0  0  0  0  0  0  0  0  0  0  0  0
  -17.9116  -24.4646  -40.2162 H   0  0  0  0  0  0  0  0  0  0  0  0
  -21.4827  -24.1000  -36.7869 H   0  0  0  0  0  0  0  0  0  0  0  0
  -16.2959  -25.1609  -38.4610 H   0  0  0  0  0  0  0  0  0  0  0  0
  -19.8646  -24.7963  -35.0269 H   0  0  0  0  0  0  0  0  0  0  0  0
   -9.1644  -26.5313  -34.3046 H   0  0  0  0  0  0  0  0  0  0  0  0
  -10.1555  -27.2321  -33.0271 H   0  0  0  0  0  0  0  0  0  0  0  0
  -11.9488  -25.6202  -33.4247 H   0  0  0  0  0  0  0  0  0  0  0  0
  -10.4313  -24.7489  -33.2160 H   0  0  0  0  0  0  0  0  0  0  0  0
  -10.2096  -28.5746  -35.1418 H   0  0  0  0  0  0  0  0  0  0  0  0
  -11.8088  -28.0316  -34.6392 H   0  0  0  0  0  0  0  0  0  0  0  0
  -11.7859  -23.8545  -35.1192 H   0  0  0  0  0  0  0  0  0  0  0  0
  -10.1913  -24.4024  -35.6163 H   0  0  0  0  0  0  0  0  0  0  0  0
  -10.0496  -26.8332  -36.8401 H   0  0  0  0  0  0  0  0  0  0  0  0
  -11.5615  -27.7031  -37.0577 H   0  0  0  0  0  0  0  0  0  0  0  0
  -11.8293  -25.2023  -37.2513 H   0  0  0  0  0  0  0  0  0  0  0  0
  -15.4311  -26.4476  -35.2741 H   0  0  0  0  0  0  0  0  0  0  0  0
  -13.4071  -26.6185  -35.1922 H   0  0  0  0  0  0  0  0  0  0  0  0
  -18.3372  -25.3649  -33.5712 H   0  0  0  0  0  0  0  0  0  0  0  0
  1  2  1  0  0  0  0
  1  3  2  0  0  0  0
  2  4  2  0  0  0  0
  3  7  1  0  0  0  0
  4  8  1  0  0  0  0
  5  7  1  0  0  0  0
  5  9  2  0  0  0  0
  6  8  1  0  0  0  0
  6 10  2  0  0  0  0
  7  8  2  0  0  0  0
  9 10  1  0  0  0  0
  9 18  1  0  0  0  0
 10 21  1  0  0  0  0
 11 18  1  0  0  0  0
 11 19  1  0  0  0  0
 11 20  2  0  0  0  0
 12 13  1  0  0  0  0
 12 14  1  0  0  0  0
 13 15  1  0  0  0  0
 14 16  1  0  0  0  0
 15 17  1  0  0  0  0
 16 17  1  0  0  0  0
 17 19  1  0  0  0  0
  1 22  1  0  0  0  0
  2 23  1  0  0  0  0
  3 24  1  0  0  0  0
  4 25  1  0  0  0  0
  5 26  1  0  0  0  0
  6 27  1  0  0  0  0
 12 28  1  0  0  0  0
 12 29  1  0  0  0  0
 13 30  1  0  0  0  0
 13 31  1  0  0  0  0
 14 32  1  0  0  0  0
 14 33  1  0  0  0  0
 15 34  1  0  0  0  0
 15 35  1  0  0  0  0
 16 36  1  0  0  0  0
 16 37  1  0  0  0  0
 17 38  1  0  0  0  0
 18 39  1  0  0  0  0
 19 40  1  0  0  0  0
 21 41  1  0  0  0  0
M  END
> <Name>
A_95

> <SourceTag>
A_95

> <Gold.Version>
5.2

> <Gold.Id.Protein>
6HGV|6HGV_protein|mol2

> <Gold.Goldscore.Fitness>
69.1154

> <Gold.Goldscore.Internal.Vdw>
-3.7084

> <Gold.Goldscore.Internal.Torsion>
-2.7478

> <Gold.Goldscore.External.Vdw>
46.8014

> <Gold.Goldscore.Internal.HBond>
0.0000

> <Gold.Goldscore.External.HBond>
6.0611

> <Gold.Goldscore.Internal.Correction>
-5.1587

> <Gold.Goldscore.Hbonds>
donor molecule, donor type, donor heavy atom, donor atom, acceptor molecule, acceptor atom, score
      P1  H  2205  4797       L1    21  0.03
      L1  H    21    41       P1  2185  1.00

> <Gold.Goldscore.Internal.Vdw.Weighted>
-3.7084

> <Gold.Goldscore.Internal.Torsion.Weighted>
-2.7478

> <Gold.Goldscore.External.Vdw.Weighted>
64.3519

> <Gold.Goldscore.Internal.HBond.Weighted>
0.0000

> <Gold.Goldscore.External.HBond.Weighted>
6.0611

> <Gold.Goldscore.Internal.Correction.Weighted>
-5.1587

> <Gold.Protein.RotatedTorsions>
[ 3781 1176 1175 1172 ] final -157.86 input   60.00 | X-H torsion
[ 3847 1247 1246 1244 ] final  145.57 input   60.00 | X-H torsion
[ 4507 1931 1930 1928 ] final  -60.71 input   60.00 | X-H torsion
[ 3677 1070 1069 1066 ] final  -71.06 input   60.00 | X-H torsion
[ 3525  925  924  922 ] final  165.49 input   59.99 | X-H torsion
[ 4531 1957 1955 1953 ] final   43.62 input   60.00 | X-H torsion

> <Gold.Protein.ActiveResidues>
 PHE267  PRO268  MET310  ASP335  TRP336  MET339  TYR343  THR360  PRO361  ILE363 
 PRO371  SER374  ILE375  ASN378  PHE381  TYR383  GLN384  PHE387  LEU408  LEU417 
 MET419  LEU428  TYR466  MET469  ASN472  ASP496  VAL498  LEU499  MET503  HIS524 
 TRP525 

> <Gold.Protein.RotatedAtoms>
   -2.1218  -30.2684  -29.6089 H   0  0  0  0  0  0  0  0  0  0  0  0  # atno 3525 bound_to 925 
  -12.1652  -23.8451  -31.2572 H   0  0  0  0  0  0  0  0  0  0  0  0  # atno 3677 bound_to 1070
   -9.2471  -36.3805  -33.1906 H   0  0  0  0  0  0  0  0  0  0  0  0  # atno 3781 bound_to 1176
  -14.3592  -27.8990  -37.8983 H   0  0  0  0  0  0  0  0  0  0  0  0  # atno 3847 bound_to 1247
  -13.6834  -25.2179  -39.9268 H   0  0  0  0  0  0  0  0  0  0  0  0  # atno 4507 bound_to 1931
   -3.0987  -33.1521  -36.6543 H   0  0  0  0  0  0  0  0  0  0  0  0  # atno 4531 bound_to 1957
  -10.3570  -37.3672  -32.5253 LP  0  0  0  0  0  0  0  0  0  0  0  0  # atno 5205 bound_to 1176
  -10.5122  -36.8889  -34.0789 LP  0  0  0  0  0  0  0  0  0  0  0  0  # atno 5206 bound_to 1176
  -15.3520  -28.9226  -37.1144 LP  0  0  0  0  0  0  0  0  0  0  0  0  # atno 5215 bound_to 1247
  -15.8591  -27.4168  -37.4913 LP  0  0  0  0  0  0  0  0  0  0  0  0  # atno 5216 bound_to 1247
  -12.8635  -23.8355  -40.1810 LP  0  0  0  0  0  0  0  0  0  0  0  0  # atno 5217 bound_to 1931
  -12.6435  -24.6762  -38.7985 LP  0  0  0  0  0  0  0  0  0  0  0  0  # atno 5218 bound_to 1931
  -11.1165  -22.6142  -31.0747 LP  0  0  0  0  0  0  0  0  0  0  0  0  # atno 5224 bound_to 1070
  -12.5709  -22.5683  -30.3335 LP  0  0  0  0  0  0  0  0  0  0  0  0  # atno 5225 bound_to 1070

$$$$
A_84|SEH_inhibs_minimized|sdf|51|dock4
  -GOLD-   4182110403D 1   1.00000     0.00000

 48 50  0  0  0  0  0  0  0  0  1 V2000
  -15.1983  -24.2970  -37.0274 C   0  0  0  0  0  0  0  0  0  0  0  0
  -15.1100  -26.2261  -35.5755 C   0  0  0  0  0  0  0  0  0  0  0  0
  -20.7825  -23.1486  -37.4404 C   0  0  0  0  0  0  0  0  0  0  0  0
  -13.8532  -24.4776  -37.3492 C   0  0  0  0  0  0  0  0  0  0  0  0
  -13.7649  -26.4067  -35.8973 C   0  0  0  0  0  0  0  0  0  0  0  0
  -22.0329  -22.7025  -37.8684 C   0  0  0  0  0  0  0  0  0  0  0  0
  -10.9174  -24.9921  -34.9890 C   0  0  0  0  0  0  0  0  0  0  0  0
  -21.8373  -24.3995  -35.6628 C   0  0  0  0  0  0  0  0  0  0  0  0
  -10.0438  -26.9559  -36.0683 C   0  0  0  0  0  0  0  0  0  0  0  0
  -10.0053  -25.2126  -33.9695 C   0  0  0  0  0  0  0  0  0  0  0  0
  -23.0877  -23.9534  -36.0909 C   0  0  0  0  0  0  0  0  0  0  0  0
  -15.8267  -25.1712  -36.1406 C   0  0  0  0  0  0  0  0  0  0  0  0
  -20.6847  -23.9972  -36.3377 C   0  0  0  0  0  0  0  0  0  0  0  0
  -13.1364  -25.5324  -36.7842 C   0  0  0  0  0  0  0  0  0  0  0  0
  -10.9306  -25.8850  -36.0547 C   0  0  0  0  0  0  0  0  0  0  0  0
  -23.1854  -23.1048  -37.1936 C   0  0  0  0  0  0  0  0  0  0  0  0
   -9.1707  -27.0883  -35.0006 C   0  0  0  0  0  0  0  0  0  0  0  0
   -8.2225  -28.1883  -34.9619 C   0  0  0  0  0  0  0  0  0  0  0  0
  -18.2077  -24.4492  -36.6188 C   0  0  0  0  0  0  0  0  0  0  0  0
   -7.8753  -30.6404  -35.3591 C   0  0  0  0  0  0  0  0  0  0  0  0
  -24.2986  -24.4072  -35.3413 C   0  0  0  0  0  0  0  0  0  0  0  0
   -9.1285  -26.2412  -33.9478 N   0  0  0  0  0  0  0  0  0  0  0  0
  -17.1913  -24.9881  -35.8140 N   0  0  0  0  0  0  0  0  0  0  0  0
  -19.4340  -24.4441  -35.9103 N   0  0  0  0  0  0  0  0  0  0  0  0
   -8.6892  -29.4460  -35.3638 N   0  0  0  0  0  0  0  0  0  0  0  0
   -7.0568  -28.0053  -34.5660 O   0  0  0  0  0  0  0  0  0  0  0  0
  -18.0625  -24.0412  -37.7667 O   0  0  0  0  0  0  0  0  0  0  0  0
  -11.8238  -25.7087  -37.0981 O   0  0  0  0  0  0  0  0  0  0  0  0
  -25.0378  -25.3371  -36.0131 F   0  0  0  0  0  0  0  0  0  0  0  0
  -24.0092  -24.9805  -34.1373 F   0  0  0  0  0  0  0  0  0  0  0  0
  -25.1559  -23.3832  -35.0659 F   0  0  0  0  0  0  0  0  0  0  0  0
  -24.7149  -22.5328  -37.7530 Cl  0  0  0  0  0  0  0  0  0  0  0  0
  -15.7472  -23.4717  -37.4737 H   0  0  0  0  0  0  0  0  0  0  0  0
  -15.5893  -26.9135  -34.8831 H   0  0  0  0  0  0  0  0  0  0  0  0
  -19.8915  -22.8306  -37.9753 H   0  0  0  0  0  0  0  0  0  0  0  0
  -13.3691  -23.7933  -38.0407 H   0  0  0  0  0  0  0  0  0  0  0  0
  -13.2118  -27.2302  -35.4539 H   0  0  0  0  0  0  0  0  0  0  0  0
  -22.0921  -22.0413  -38.7295 H   0  0  0  0  0  0  0  0  0  0  0  0
  -11.5973  -24.1482  -34.9517 H   0  0  0  0  0  0  0  0  0  0  0  0
  -21.7618  -25.0620  -34.8031 H   0  0  0  0  0  0  0  0  0  0  0  0
  -10.0404  -27.6632  -36.8916 H   0  0  0  0  0  0  0  0  0  0  0  0
   -9.9561  -24.5455  -33.1152 H   0  0  0  0  0  0  0  0  0  0  0  0
   -7.7943  -31.0358  -34.3432 H   0  0  0  0  0  0  0  0  0  0  0  0
   -6.8718  -30.4153  -35.7303 H   0  0  0  0  0  0  0  0  0  0  0  0
   -8.3226  -31.4050  -35.9998 H   0  0  0  0  0  0  0  0  0  0  0  0
  -17.4701  -25.2832  -34.8817 H   0  0  0  0  0  0  0  0  0  0  0  0
  -19.3829  -24.8208  -34.9578 H   0  0  0  0  0  0  0  0  0  0  0  0
   -9.6657  -29.5539  -35.6177 H   0  0  0  0  0  0  0  0  0  0  0  0
  1  4  1  0  0  0  0
  1 12  2  0  0  0  0
  2  5  2  0  0  0  0
  2 12  1  0  0  0  0
  3  6  2  0  0  0  0
  3 13  1  0  0  0  0
  4 14  2  0  0  0  0
  5 14  1  0  0  0  0
  6 16  1  0  0  0  0
  7 10  1  0  0  0  0
  7 15  2  0  0  0  0
  8 11  1  0  0  0  0
  8 13  2  0  0  0  0
  9 15  1  0  0  0  0
  9 17  2  0  0  0  0
 10 22  2  0  0  0  0
 11 16  2  0  0  0  0
 11 21  1  0  0  0  0
 12 23  1  0  0  0  0
 13 24  1  0  0  0  0
 14 28  1  0  0  0  0
 15 28  1  0  0  0  0
 16 32  1  0  0  0  0
 17 18  1  0  0  0  0
 17 22  1  0  0  0  0
 18 25  1  0  0  0  0
 18 26  2  0  0  0  0
 19 23  1  0  0  0  0
 19 24  1  0  0  0  0
 19 27  2  0  0  0  0
 20 25  1  0  0  0  0
 21 29  1  0  0  0  0
 21 30  1  0  0  0  0
 21 31  1  0  0  0  0
  1 33  1  0  0  0  0
  2 34  1  0  0  0  0
  3 35  1  0  0  0  0
  4 36  1  0  0  0  0
  5 37  1  0  0  0  0
  6 38  1  0  0  0  0
  7 39  1  0  0  0  0
  8 40  1  0  0  0  0
  9 41  1  0  0  0  0
 10 42  1  0  0  0  0
 20 43  1  0  0  0  0
 20 44  1  0  0  0  0
 20 45  1  0  0  0  0
 23 46  1  0  0  0  0
 24 47  1  0  0  0  0
 25 48  1  0  0  0  0
M  END
> <Name>
A_84

> <SourceTag>
A_84

> <Gold.Version>
5.2

> <Gold.Id.Protein>
6HGV|6HGV_protein|mol2

> <Gold.Goldscore.Fitness>
83.7376

> <Gold.Goldscore.Internal.Vdw>
-2.3051

> <Gold.Goldscore.Internal.Torsion>
-8.7580

> <Gold.Goldscore.External.Vdw>
62.2135

> <Gold.Goldscore.Internal.HBond>
0.0000

> <Gold.Goldscore.External.HBond>
0.8930

> <Gold.Goldscore.Internal.Correction>
-8.3643

> <Gold.Goldscore.Hbonds>
donor molecule, donor type, donor heavy atom, donor atom, acceptor molecule, acceptor atom, score
      L1  H    24    47       P1  2185  0.15

> <Gold.Goldscore.Internal.Vdw.Weighted>
-2.3051

> <Gold.Goldscore.Internal.Torsion.Weighted>
-8.7580

> <Gold.Goldscore.External.Vdw.Weighted>
85.5435

> <Gold.Goldscore.Internal.HBond.Weighted>
0.0000

> <Gold.Goldscore.External.HBond.Weighted>
0.8930

> <Gold.Goldscore.Internal.Correction.Weighted>
-8.3643

> <Gold.Protein.RotatedTorsions>
[ 3781 1176 1175 1172 ] final -155.37 input   60.00 | X-H torsion
[ 3847 1247 1246 1244 ] final  -16.90 input   60.00 | X-H torsion
[ 4507 1931 1930 1928 ] final -108.09 input   60.00 | X-H torsion
[ 3677 1070 1069 1066 ] final -154.59 input   60.00 | X-H torsion
[ 3525  925  924  922 ] final   16.56 input   59.99 | X-H torsion
[ 4531 1957 1955 1953 ] final  -62.96 input   60.00 | X-H torsion

> <Gold.Protein.ActiveResidues>
 PHE267  PRO268  MET310  ASP335  TRP336  MET339  TYR343  THR360  PRO361  ILE363 
 PRO371  SER374  ILE375  ASN378  PHE381  TYR383  GLN384  PHE387  LEU408  LEU417 
 MET419  LEU428  TYR466  MET469  ASN472  ASP496  VAL498  LEU499  MET503  HIS524 
 TRP525 

> <Gold.Protein.RotatedAtoms>
   -3.4206  -29.6050  -30.6707 H   0  0  0  0  0  0  0  0  0  0  0  0  # atno 3525 bound_to 925 
  -11.1464  -23.1320  -31.3520 H   0  0  0  0  0  0  0  0  0  0  0  0  # atno 3677 bound_to 1070
   -9.2517  -36.3691  -33.2292 H   0  0  0  0  0  0  0  0  0  0  0  0  # atno 3781 bound_to 1176
  -15.8921  -28.5119  -37.0622 H   0  0  0  0  0  0  0  0  0  0  0  0  # atno 3847 bound_to 1247
  -13.5762  -24.6568  -40.4164 H   0  0  0  0  0  0  0  0  0  0  0  0  # atno 4507 bound_to 1931
   -1.9334  -32.2284  -36.8599 H   0  0  0  0  0  0  0  0  0  0  0  0  # atno 4531 bound_to 1957
  -10.3250  -37.3539  -32.5038 LP  0  0  0  0  0  0  0  0  0  0  0  0  # atno 5205 bound_to 1176
  -10.5396  -36.9136  -34.0616 LP  0  0  0  0  0  0  0  0  0  0  0  0  # atno 5206 bound_to 1176
  -15.2935  -27.1907  -37.7999 LP  0  0  0  0  0  0  0  0  0  0  0  0  # atno 5215 bound_to 1247
  -14.3739  -28.5316  -37.6478 LP  0  0  0  0  0  0  0  0  0  0  0  0  # atno 5216 bound_to 1247
  -12.4843  -23.8436  -39.5250 LP  0  0  0  0  0  0  0  0  0  0  0  0  # atno 5217 bound_to 1931
  -13.1307  -25.2332  -38.9613 LP  0  0  0  0  0  0  0  0  0  0  0  0  # atno 5218 bound_to 1931
  -12.0888  -22.2308  -30.3784 LP  0  0  0  0  0  0  0  0  0  0  0  0  # atno 5224 bound_to 1070
  -12.6245  -23.6697  -30.9345 LP  0  0  0  0  0  0  0  0  0  0  0  0  # atno 5225 bound_to 1070

$$$$
A_49|SEH_inhibs_minimized|sdf|35|dock4
  -GOLD-   4182110 03D 1   1.00000     0.00000

 47 48  0  0  0  0  0  0  0  0  1 V2000
  -20.2280  -23.3803  -37.4582 C   0  0  0  0  0  0  0  0  0  0  0  0
  -14.1966  -25.5395  -37.6043 C   0  0  0  0  0  0  0  0  0  0  0  0
  -10.8152  -27.4748  -33.9255 C   0  0  0  0  0  0  0  0  0  0  0  0
  -10.1177  -26.1350  -33.7171 C   0  0  0  0  0  0  0  0  0  0  0  0
  -12.1591  -27.4066  -34.6493 C   0  0  0  0  0  0  0  0  0  0  0  0
   -9.8823  -25.3168  -34.9858 C   0  0  0  0  0  0  0  0  0  0  0  0
  -12.0122  -27.0942  -36.1378 C   0  0  0  0  0  0  0  0  0  0  0  0
  -11.1668  -24.7038  -35.5369 C   0  0  0  0  0  0  0  0  0  0  0  0
  -17.6312  -25.9019  -37.6788 C   0  0  0  0  0  0  0  0  0  0  0  0
  -17.0573  -23.8606  -39.0547 C   0  0  0  0  0  0  0  0  0  0  0  0
  -18.4118  -25.0009  -36.7211 C   0  0  0  0  0  0  0  0  0  0  0  0
  -17.8603  -23.0091  -38.0712 C   0  0  0  0  0  0  0  0  0  0  0  0
  -11.9615  -25.6038  -36.4886 C   0  0  0  0  0  0  0  0  0  0  0  0
  -16.5180  -25.1444  -38.4116 C   0  0  0  0  0  0  0  0  0  0  0  0
  -21.2333  -24.2341  -36.7273 C   0  0  0  0  0  0  0  0  0  0  0  0
  -18.9001  -23.8040  -37.4161 N   0  0  0  0  0  0  0  0  0  0  0  0
  -13.3039  -25.0803  -36.6397 N   0  0  0  0  0  0  0  0  0  0  0  0
  -15.4111  -24.8652  -37.5262 N   0  0  0  0  0  0  0  0  0  0  0  0
  -20.6138  -22.3691  -38.0502 O   0  0  0  0  0  0  0  0  0  0  0  0
  -13.9456  -26.4261  -38.4196 O   0  0  0  0  0  0  0  0  0  0  0  0
  -10.1418  -28.1544  -34.4628 H   0  0  0  0  0  0  0  0  0  0  0  0
  -10.9774  -27.9274  -32.9391 H   0  0  0  0  0  0  0  0  0  0  0  0
  -10.6876  -25.5382  -32.9940 H   0  0  0  0  0  0  0  0  0  0  0  0
   -9.1453  -26.3309  -33.2478 H   0  0  0  0  0  0  0  0  0  0  0  0
  -12.6251  -28.3964  -34.5605 H   0  0  0  0  0  0  0  0  0  0  0  0
  -12.8360  -26.6999  -34.1561 H   0  0  0  0  0  0  0  0  0  0  0  0
   -9.2070  -24.4932  -34.7204 H   0  0  0  0  0  0  0  0  0  0  0  0
   -9.3636  -25.9092  -35.7479 H   0  0  0  0  0  0  0  0  0  0  0  0
  -11.1073  -27.5828  -36.5213 H   0  0  0  0  0  0  0  0  0  0  0  0
  -12.8471  -27.5630  -36.6753 H   0  0  0  0  0  0  0  0  0  0  0  0
  -11.8011  -24.3691  -34.7051 H   0  0  0  0  0  0  0  0  0  0  0  0
  -10.9080  -23.7878  -36.0854 H   0  0  0  0  0  0  0  0  0  0  0  0
  -17.2197  -26.7553  -37.1269 H   0  0  0  0  0  0  0  0  0  0  0  0
  -18.3279  -26.3060  -38.4249 H   0  0  0  0  0  0  0  0  0  0  0  0
  -17.7134  -24.1400  -39.8894 H   0  0  0  0  0  0  0  0  0  0  0  0
  -16.2396  -23.2638  -39.4755 H   0  0  0  0  0  0  0  0  0  0  0  0
  -19.2255  -25.5735  -36.2727 H   0  0  0  0  0  0  0  0  0  0  0  0
  -17.7695  -24.6601  -35.9005 H   0  0  0  0  0  0  0  0  0  0  0  0
  -17.2098  -22.6089  -37.2846 H   0  0  0  0  0  0  0  0  0  0  0  0
  -18.2961  -22.1538  -38.5973 H   0  0  0  0  0  0  0  0  0  0  0  0
  -11.5204  -25.5223  -37.4896 H   0  0  0  0  0  0  0  0  0  0  0  0
  -16.1056  -25.7921  -39.1985 H   0  0  0  0  0  0  0  0  0  0  0  0
  -20.9261  -24.2935  -35.6879 H   0  0  0  0  0  0  0  0  0  0  0  0
  -21.2365  -25.2205  -37.1786 H   0  0  0  0  0  0  0  0  0  0  0  0
  -22.2066  -23.7622  -36.8080 H   0  0  0  0  0  0  0  0  0  0  0  0
  -13.6082  -24.3429  -36.0118 H   0  0  0  0  0  0  0  0  0  0  0  0
  -15.5461  -24.1794  -36.7915 H   0  0  0  0  0  0  0  0  0  0  0  0
  1 15  1  0  0  0  0
  1 16  1  0  0  0  0
  1 19  2  0  0  0  0
  2 17  1  0  0  0  0
  2 18  1  0  0  0  0
  2 20  2  0  0  0  0
  3  4  1  0  0  0  0
  3  5  1  0  0  0  0
  4  6  1  0  0  0  0
  5  7  1  0  0  0  0
  6  8  1  0  0  0  0
  7 13  1  0  0  0  0
  8 13  1  0  0  0  0
  9 11  1  0  0  0  0
  9 14  1  0  0  0  0
 10 12  1  0  0  0  0
 10 14  1  0  0  0  0
 11 16  1  0  0  0  0
 12 16  1  0  0  0  0
 13 17  1  0  0  0  0
 14 18  1  0  0  0  0
  3 21  1  0  0  0  0
  3 22  1  0  0  0  0
  4 23  1  0  0  0  0
  4 24  1  0  0  0  0
  5 25  1  0  0  0  0
  5 26  1  0  0  0  0
  6 27  1  0  0  0  0
  6 28  1  0  0  0  0
  7 29  1  0  0  0  0
  7 30  1  0  0  0  0
  8 31  1  0  0  0  0
  8 32  1  0  0  0  0
  9 33  1  0  0  0  0
  9 34  1  0  0  0  0
 10 35  1  0  0  0  0
 10 36  1  0  0  0  0
 11 37  1  0  0  0  0
 11 38  1  0  0  0  0
 12 39  1  0  0  0  0
 12 40  1  0  0  0  0
 13 41  1  0  0  0  0
 14 42  1  0  0  0  0
 15 43  1  0  0  0  0
 15 44  1  0  0  0  0
 15 45  1  0  0  0  0
 17 46  1  0  0  0  0
 18 47  1  0  0  0  0
M  END
> <Name>
A_49

> <SourceTag>
A_49

> <Gold.Version>
5.2

> <Gold.Id.Protein>
6HGV|6HGV_protein|mol2

> <Gold.Goldscore.Fitness>
53.4943

> <Gold.Goldscore.Internal.Vdw>
-5.6846

> <Gold.Goldscore.Internal.Torsion>
-2.0110

> <Gold.Goldscore.External.Vdw>
36.7119

> <Gold.Goldscore.Internal.HBond>
0.0000

> <Gold.Goldscore.External.HBond>
5.6965

> <Gold.Goldscore.Internal.Correction>
-5.0145

> <Gold.Goldscore.Hbonds>
donor molecule, donor type, donor heavy atom, donor atom, acceptor molecule, acceptor atom, score
      L1  H    17    46       P1   853  0.93
      L1  H    18    47       P1   853  0.02

> <Gold.Goldscore.Internal.Vdw.Weighted>
-5.6846

> <Gold.Goldscore.Internal.Torsion.Weighted>
-2.0110

> <Gold.Goldscore.External.Vdw.Weighted>
50.4789

> <Gold.Goldscore.Internal.HBond.Weighted>
0.0000

> <Gold.Goldscore.External.HBond.Weighted>
5.6965

> <Gold.Goldscore.Internal.Correction.Weighted>
-5.0145

> <Gold.Protein.RotatedTorsions>
[ 3781 1176 1175 1172 ] final   35.46 input   60.00 | X-H torsion
[ 3847 1247 1246 1244 ] final   42.81 input   60.00 | X-H torsion
[ 4507 1931 1930 1928 ] final  114.57 input   60.00 | X-H torsion
[ 3677 1070 1069 1066 ] final  -98.66 input   60.00 | X-H torsion
[ 3525  925  924  922 ] final  -22.13 input   59.99 | X-H torsion
[ 4531 1957 1955 1953 ] final -122.21 input   60.00 | X-H torsion

> <Gold.Protein.ActiveResidues>
 PHE267  PRO268  MET310  ASP335  TRP336  MET339  TYR343  THR360  PRO361  ILE363 
 PRO371  SER374  ILE375  ASN378  PHE381  TYR383  GLN384  PHE387  LEU408  LEU417 
 MET419  LEU428  TYR466  MET469  ASN472  ASP496  VAL498  LEU499  MET503  HIS524 
 TRP525 

> <Gold.Protein.RotatedAtoms>
   -3.7427  -29.5123  -30.1489 H   0  0  0  0  0  0  0  0  0  0  0  0  # atno 3525 bound_to 925 
  -11.7545  -23.7625  -31.4121 H   0  0  0  0  0  0  0  0  0  0  0  0  # atno 3677 bound_to 1070
  -10.7833  -37.4271  -33.1328 H   0  0  0  0  0  0  0  0  0  0  0  0  # atno 3781 bound_to 1176
  -15.0883  -28.9614  -37.2057 H   0  0  0  0  0  0  0  0  0  0  0  0  # atno 3847 bound_to 1247
  -12.4358  -23.9817  -39.2824 H   0  0  0  0  0  0  0  0  0  0  0  0  # atno 4507 bound_to 1931
   -1.2917  -32.8821  -36.9932 H   0  0  0  0  0  0  0  0  0  0  0  0  # atno 4531 bound_to 1957
   -9.8950  -36.4684  -34.1022 LP  0  0  0  0  0  0  0  0  0  0  0  0  # atno 5205 bound_to 1176
   -9.4271  -36.7337  -32.5603 LP  0  0  0  0  0  0  0  0  0  0  0  0  # atno 5206 bound_to 1176
  -16.0000  -27.6221  -37.3575 LP  0  0  0  0  0  0  0  0  0  0  0  0  # atno 5215 bound_to 1247
  -14.4768  -27.6474  -37.9457 LP  0  0  0  0  0  0  0  0  0  0  0  0  # atno 5216 bound_to 1247
  -13.3166  -25.3432  -39.1461 LP  0  0  0  0  0  0  0  0  0  0  0  0  # atno 5217 bound_to 1931
  -13.4468  -24.4134  -40.4822 LP  0  0  0  0  0  0  0  0  0  0  0  0  # atno 5218 bound_to 1931
  -11.3194  -22.3166  -30.8055 LP  0  0  0  0  0  0  0  0  0  0  0  0  # atno 5224 bound_to 1070
  -12.7815  -22.9491  -30.4468 LP  0  0  0  0  0  0  0  0  0  0  0  0  # atno 5225 bound_to 1070

$$$$
A_22|SEH_inhibs_minimized|sdf|21|dock2
  -GOLD-   41821 9353D 1   1.00000     0.00000

 61 66  0  0  0  0  0  0  0  0  1 V2000
  -21.9474  -23.3074  -38.0236 C   0  0  0  0  0  0  0  0  0  0  0  0
  -21.2765  -23.4759  -39.2350 C   0  0  0  0  0  0  0  0  0  0  0  0
  -21.3373  -23.6909  -36.8292 C   0  0  0  0  0  0  0  0  0  0  0  0
   -9.3561  -30.4893  -34.9616 C   0  0  0  0  0  0  0  0  0  0  0  0
  -19.9955  -24.0279  -39.2517 C   0  0  0  0  0  0  0  0  0  0  0  0
  -20.0564  -24.2428  -36.8462 C   0  0  0  0  0  0  0  0  0  0  0  0
  -10.4717  -29.6659  -34.8076 C   0  0  0  0  0  0  0  0  0  0  0  0
   -5.7837  -30.3392  -35.6721 C   0  0  0  0  0  0  0  0  0  0  0  0
   -6.9387  -32.1100  -34.5253 C   0  0  0  0  0  0  0  0  0  0  0  0
   -7.8997  -28.5957  -34.5917 C   0  0  0  0  0  0  0  0  0  0  0  0
   -4.7052  -31.1993  -35.8012 C   0  0  0  0  0  0  0  0  0  0  0  0
   -5.8084  -32.8910  -34.7056 C   0  0  0  0  0  0  0  0  0  0  0  0
   -8.0725  -29.9539  -34.8584 C   0  0  0  0  0  0  0  0  0  0  0  0
   -6.9180  -30.8109  -35.0207 C   0  0  0  0  0  0  0  0  0  0  0  0
   -9.0199  -27.7749  -34.4349 C   0  0  0  0  0  0  0  0  0  0  0  0
  -19.3855  -24.4112  -38.0573 C   0  0  0  0  0  0  0  0  0  0  0  0
  -10.3057  -28.3024  -34.5572 C   0  0  0  0  0  0  0  0  0  0  0  0
   -8.8599  -26.3481  -34.1035 C   0  0  0  0  0  0  0  0  0  0  0  0
  -14.5378  -24.9926  -37.2073 C   0  0  0  0  0  0  0  0  0  0  0  0
  -10.1288  -25.5966  -33.8013 C   0  0  0  0  0  0  0  0  0  0  0  0
  -11.1788  -25.8032  -36.1255 C   0  0  0  0  0  0  0  0  0  0  0  0
  -12.6097  -25.5029  -34.0976 C   0  0  0  0  0  0  0  0  0  0  0  0
  -16.9736  -24.4038  -38.9825 C   0  0  0  0  0  0  0  0  0  0  0  0
  -12.4176  -26.2305  -36.9110 C   0  0  0  0  0  0  0  0  0  0  0  0
  -13.8399  -25.9093  -34.9155 C   0  0  0  0  0  0  0  0  0  0  0  0
  -18.0239  -24.9980  -38.0755 C   0  0  1  0  0  0  0  0  0  0  0  0
  -16.8676  -24.2055  -37.4993 C   0  0  1  0  0  0  0  0  0  0  0  0
  -11.3050  -26.1437  -34.6214 C   0  0  0  0  0  0  0  0  0  0  0  0
   -4.6883  -32.4677  -35.3331 N   0  0  0  0  0  0  0  0  0  0  0  0
  -13.6403  -25.6522  -36.3488 N   0  0  0  0  0  0  0  0  0  0  0  0
  -15.8367  -24.8515  -36.7318 N   0  0  0  0  0  0  0  0  0  0  0  0
   -7.7524  -25.8309  -34.0201 O   0  0  0  0  0  0  0  0  0  0  0  0
  -14.2095  -24.5655  -38.3196 O   0  0  0  0  0  0  0  0  0  0  0  0
  -11.4500  -27.5638  -34.4323 O   0  0  0  0  0  0  0  0  0  0  0  0
  -22.9444  -22.8775  -38.0105 H   0  0  0  0  0  0  0  0  0  0  0  0
  -21.7516  -23.1779  -40.1650 H   0  0  0  0  0  0  0  0  0  0  0  0
  -21.8592  -23.5590  -35.8861 H   0  0  0  0  0  0  0  0  0  0  0  0
   -9.5042  -31.5475  -35.1637 H   0  0  0  0  0  0  0  0  0  0  0  0
  -19.4814  -24.1552  -40.2006 H   0  0  0  0  0  0  0  0  0  0  0  0
  -19.5898  -24.5382  -35.9100 H   0  0  0  0  0  0  0  0  0  0  0  0
  -11.4679  -30.0918  -34.8950 H   0  0  0  0  0  0  0  0  0  0  0  0
   -5.7300  -29.3311  -36.0706 H   0  0  0  0  0  0  0  0  0  0  0  0
   -7.8051  -32.5133  -34.0110 H   0  0  0  0  0  0  0  0  0  0  0  0
   -6.8970  -28.1848  -34.4986 H   0  0  0  0  0  0  0  0  0  0  0  0
   -3.7963  -30.8788  -36.3000 H   0  0  0  0  0  0  0  0  0  0  0  0
   -5.7741  -33.9111  -34.3378 H   0  0  0  0  0  0  0  0  0  0  0  0
  -10.3124  -25.7119  -32.7258 H   0  0  0  0  0  0  0  0  0  0  0  0
   -9.9711  -24.5333  -34.0145 H   0  0  0  0  0  0  0  0  0  0  0  0
  -10.3082  -26.2955  -36.5730 H   0  0  0  0  0  0  0  0  0  0  0  0
  -11.0344  -24.7218  -36.2459 H   0  0  0  0  0  0  0  0  0  0  0  0
  -12.5170  -24.4089  -34.1188 H   0  0  0  0  0  0  0  0  0  0  0  0
  -12.7813  -25.7986  -33.0548 H   0  0  0  0  0  0  0  0  0  0  0  0
  -16.2830  -25.0875  -39.4631 H   0  0  0  0  0  0  0  0  0  0  0  0
  -17.2317  -23.5427  -39.5879 H   0  0  0  0  0  0  0  0  0  0  0  0
  -12.2972  -25.9445  -37.9606 H   0  0  0  0  0  0  0  0  0  0  0  0
  -12.5347  -27.3205  -36.8895 H   0  0  0  0  0  0  0  0  0  0  0  0
  -14.0477  -26.9795  -34.8037 H   0  0  0  0  0  0  0  0  0  0  0  0
  -14.6968  -25.3667  -34.5153 H   0  0  0  0  0  0  0  0  0  0  0  0
  -17.9804  -26.0768  -37.9513 H   0  0  0  0  0  0  0  0  0  0  0  0
  -17.0775  -23.2064  -37.1309 H   0  0  0  0  0  0  0  0  0  0  0  0
  -16.0646  -25.2155  -35.8149 H   0  0  0  0  0  0  0  0  0  0  0  0
  1  2  2  0  0  0  0
  1  3  1  0  0  0  0
  2  5  1  0  0  0  0
  3  6  2  0  0  0  0
  4  7  2  0  0  0  0
  4 13  1  0  0  0  0
  5 16  2  0  0  0  0
  6 16  1  0  0  0  0
  7 17  1  0  0  0  0
  8 11  1  0  0  0  0
  8 14  2  0  0  0  0
  9 12  2  0  0  0  0
  9 14  1  0  0  0  0
 10 13  2  0  0  0  0
 10 15  1  0  0  0  0
 11 29  2  0  0  0  0
 12 29  1  0  0  0  0
 13 14  1  0  0  0  0
 15 17  2  0  0  0  0
 15 18  1  0  0  0  0
 16 26  1  0  0  0  0
 17 34  1  0  0  0  0
 18 20  1  0  0  0  0
 18 32  2  0  0  0  0
 19 30  1  0  0  0  0
 19 31  1  0  0  0  0
 19 33  2  0  0  0  0
 20 28  1  0  0  0  0
 21 24  1  0  0  0  0
 21 28  1  0  0  0  0
 22 25  1  0  0  0  0
 22 28  1  0  0  0  0
 23 26  1  0  0  0  0
 23 27  1  0  0  0  0
 24 30  1  0  0  0  0
 25 30  1  0  0  0  0
 26 27  1  0  0  0  0
 27 31  1  0  0  0  0
 28 34  1  0  0  0  0
  1 35  1  0  0  0  0
  2 36  1  0  0  0  0
  3 37  1  0  0  0  0
  4 38  1  0  0  0  0
  5 39  1  0  0  0  0
  6 40  1  0  0  0  0
  7 41  1  0  0  0  0
  8 42  1  0  0  0  0
  9 43  1  0  0  0  0
 10 44  1  0  0  0  0
 11 45  1  0  0  0  0
 12 46  1  0  0  0  0
 20 47  1  0  0  0  0
 20 48  1  0  0  0  0
 21 49  1  0  0  0  0
 21 50  1  0  0  0  0
 22 51  1  0  0  0  0
 22 52  1  0  0  0  0
 23 53  1  0  0  0  0
 23 54  1  0  0  0  0
 24 55  1  0  0  0  0
 24 56  1  0  0  0  0
 25 57  1  0  0  0  0
 25 58  1  0  0  0  0
 26 59  1  0  0  0  0
 27 60  1  0  0  0  0
 31 61  1  0  0  0  0
M  END
> <Name>
A_22

> <SourceTag>
A_22

> <Gold.Version>
5.2

> <Gold.Id.Protein>
6HGV|6HGV_protein|mol2

> <Gold.Goldscore.Fitness>
72.7666

> <Gold.Goldscore.Internal.Vdw>
-10.1059

> <Gold.Goldscore.Internal.Torsion>
-4.2528

> <Gold.Goldscore.External.Vdw>
53.5201

> <Gold.Goldscore.Internal.HBond>
0.0000

> <Gold.Goldscore.External.HBond>
1.7205

> <Gold.Goldscore.Internal.Correction>
-11.8147

> <Gold.Goldscore.Hbonds>
donor molecule, donor type, donor heavy atom, donor atom, acceptor molecule, acceptor atom, score
      P1  H  1957  4531       L1    29  0.86

> <Gold.Goldscore.Internal.Vdw.Weighted>
-10.1059

> <Gold.Goldscore.Internal.Torsion.Weighted>
-4.2528

> <Gold.Goldscore.External.Vdw.Weighted>
73.5901

> <Gold.Goldscore.Internal.HBond.Weighted>
0.0000

> <Gold.Goldscore.External.HBond.Weighted>
1.7205

> <Gold.Goldscore.Internal.Correction.Weighted>
-11.8147

> <Gold.Protein.RotatedTorsions>
[ 3781 1176 1175 1172 ] final -141.70 input   60.00 | X-H torsion
[ 3847 1247 1246 1244 ] final  -91.19 input   60.00 | X-H torsion
[ 4507 1931 1930 1928 ] final  178.01 input   60.00 | X-H torsion
[ 3677 1070 1069 1066 ] final -113.61 input   60.00 | X-H torsion
[ 3525  925  924  922 ] final  172.31 input   59.99 | X-H torsion
[ 4531 1957 1955 1953 ] final   21.96 input   60.00 | X-H torsion

> <Gold.Protein.ActiveResidues>
 PHE267  PRO268  MET310  ASP335  TRP336  MET339  TYR343  THR360  PRO361  ILE363 
 PRO371  SER374  ILE375  ASN378  PHE381  TYR383  GLN384  PHE387  LEU408  LEU417 
 MET419  LEU428  TYR466  MET469  ASN472  ASP496  VAL498  LEU499  MET503  HIS524 
 TRP525 

> <Gold.Protein.RotatedAtoms>
   -2.1668  -30.2580  -29.5076 H   0  0  0  0  0  0  0  0  0  0  0  0  # atno 3525 bound_to 925 
  -11.5449  -23.6436  -31.4474 H   0  0  0  0  0  0  0  0  0  0  0  0  # atno 3677 bound_to 1070
   -9.3030  -36.3239  -33.4414 H   0  0  0  0  0  0  0  0  0  0  0  0  # atno 3781 bound_to 1176
  -15.8866  -27.4566  -37.4681 H   0  0  0  0  0  0  0  0  0  0  0  0  # atno 3847 bound_to 1247
  -12.8498  -23.8351  -40.1635 H   0  0  0  0  0  0  0  0  0  0  0  0  # atno 4507 bound_to 1931
   -3.0403  -32.8052  -36.6594 H   0  0  0  0  0  0  0  0  0  0  0  0  # atno 4531 bound_to 1957
  -10.1404  -37.2653  -32.4116 LP  0  0  0  0  0  0  0  0  0  0  0  0  # atno 5205 bound_to 1176
  -10.6725  -37.0478  -33.9401 LP  0  0  0  0  0  0  0  0  0  0  0  0  # atno 5206 bound_to 1176
  -14.3704  -27.8480  -37.9107 LP  0  0  0  0  0  0  0  0  0  0  0  0  # atno 5215 bound_to 1247
  -15.3025  -28.9369  -37.1283 LP  0  0  0  0  0  0  0  0  0  0  0  0  # atno 5216 bound_to 1247
  -12.6543  -24.6942  -38.7954 LP  0  0  0  0  0  0  0  0  0  0  0  0  # atno 5217 bound_to 1931
  -13.6922  -25.2102  -39.9456 LP  0  0  0  0  0  0  0  0  0  0  0  0  # atno 5218 bound_to 1931
  -11.4938  -22.2183  -30.6637 LP  0  0  0  0  0  0  0  0  0  0  0  0  # atno 5224 bound_to 1070
  -12.8182  -23.1672  -30.5530 LP  0  0  0  0  0  0  0  0  0  0  0  0  # atno 5225 bound_to 1070

$$$$
A_84|SEH_inhibs_minimized|sdf|51|dock6
  -GOLD-   4182110403D 1   1.00000     0.00000

 48 50  0  0  0  0  0  0  0  0  1 V2000
  -15.3108  -24.3095  -37.0225 C   0  0  0  0  0  0  0  0  0  0  0  0
  -15.2370  -26.2820  -35.6292 C   0  0  0  0  0  0  0  0  0  0  0  0
  -20.9211  -23.1534  -37.3778 C   0  0  0  0  0  0  0  0  0  0  0  0
  -13.9706  -24.4976  -37.3598 C   0  0  0  0  0  0  0  0  0  0  0  0
  -13.8967  -26.4700  -35.9666 C   0  0  0  0  0  0  0  0  0  0  0  0
  -22.1800  -22.7274  -37.8011 C   0  0  0  0  0  0  0  0  0  0  0  0
  -11.0272  -25.2543  -35.0013 C   0  0  0  0  0  0  0  0  0  0  0  0
  -21.9562  -24.5231  -35.6779 C   0  0  0  0  0  0  0  0  0  0  0  0
  -10.2188  -27.1489  -36.2429 C   0  0  0  0  0  0  0  0  0  0  0  0
  -10.1236  -25.5895  -34.0058 C   0  0  0  0  0  0  0  0  0  0  0  0
  -23.2151  -24.0971  -36.1012 C   0  0  0  0  0  0  0  0  0  0  0  0
  -15.9441  -25.2016  -36.1571 C   0  0  0  0  0  0  0  0  0  0  0  0
  -20.8091  -24.0513  -36.3162 C   0  0  0  0  0  0  0  0  0  0  0  0
  -13.2635  -25.5778  -36.8319 C   0  0  0  0  0  0  0  0  0  0  0  0
  -11.0694  -26.0540  -36.1379 C   0  0  0  0  0  0  0  0  0  0  0  0
  -23.3270  -23.1991  -37.1628 C   0  0  0  0  0  0  0  0  0  0  0  0
   -9.3513  -27.3991  -35.1919 C   0  0  0  0  0  0  0  0  0  0  0  0
   -8.4402  -28.5294  -35.2474 C   0  0  0  0  0  0  0  0  0  0  0  0
  -18.3354  -24.5054  -36.6219 C   0  0  0  0  0  0  0  0  0  0  0  0
   -6.1597  -29.3846  -34.6484 C   0  0  0  0  0  0  0  0  0  0  0  0
  -24.4197  -24.6258  -35.3915 C   0  0  0  0  0  0  0  0  0  0  0  0
   -9.2816  -26.6450  -34.0720 N   0  0  0  0  0  0  0  0  0  0  0  0
  -17.3037  -25.0110  -35.8148 N   0  0  0  0  0  0  0  0  0  0  0  0
  -19.5498  -24.4780  -35.8936 N   0  0  0  0  0  0  0  0  0  0  0  0
   -7.1822  -28.3631  -34.6550 N   0  0  0  0  0  0  0  0  0  0  0  0
   -8.7737  -29.5835  -35.8189 O   0  0  0  0  0  0  0  0  0  0  0  0
  -18.2108  -24.1398  -37.7863 O   0  0  0  0  0  0  0  0  0  0  0  0
  -11.9556  -25.7614  -37.1610 O   0  0  0  0  0  0  0  0  0  0  0  0
  -24.1220  -25.5304  -34.4140 F   0  0  0  0  0  0  0  0  0  0  0  0
  -25.1543  -23.6569  -34.7721 F   0  0  0  0  0  0  0  0  0  0  0  0
  -25.2834  -25.2625  -36.2329 F   0  0  0  0  0  0  0  0  0  0  0  0
  -24.8674  -22.6501  -37.7150 Cl  0  0  0  0  0  0  0  0  0  0  0  0
  -15.8523  -23.4643  -37.4399 H   0  0  0  0  0  0  0  0  0  0  0  0
  -15.7201  -26.9835  -34.9538 H   0  0  0  0  0  0  0  0  0  0  0  0
  -20.0344  -22.7811  -37.8842 H   0  0  0  0  0  0  0  0  0  0  0  0
  -13.4828  -23.7993  -38.0344 H   0  0  0  0  0  0  0  0  0  0  0  0
  -13.3511  -27.3134  -35.5520 H   0  0  0  0  0  0  0  0  0  0  0  0
  -22.2503  -22.0271  -38.6299 H   0  0  0  0  0  0  0  0  0  0  0  0
  -11.6787  -24.3944  -34.8921 H   0  0  0  0  0  0  0  0  0  0  0  0
  -21.8695  -25.2241  -34.8504 H   0  0  0  0  0  0  0  0  0  0  0  0
  -10.2383  -27.7845  -37.1225 H   0  0  0  0  0  0  0  0  0  0  0  0
  -10.0529  -24.9983  -33.0988 H   0  0  0  0  0  0  0  0  0  0  0  0
   -6.0992  -29.8620  -35.6299 H   0  0  0  0  0  0  0  0  0  0  0  0
   -6.3920  -30.1470  -33.8998 H   0  0  0  0  0  0  0  0  0  0  0  0
   -5.1875  -28.9447  -34.4105 H   0  0  0  0  0  0  0  0  0  0  0  0
  -17.5659  -25.2722  -34.8677 H   0  0  0  0  0  0  0  0  0  0  0  0
  -19.4814  -24.8190  -34.9288 H   0  0  0  0  0  0  0  0  0  0  0  0
   -6.9372  -27.4622  -34.2576 H   0  0  0  0  0  0  0  0  0  0  0  0
  1  4  1  0  0  0  0
  1 12  2  0  0  0  0
  2  5  2  0  0  0  0
  2 12  1  0  0  0  0
  3  6  2  0  0  0  0
  3 13  1  0  0  0  0
  4 14  2  0  0  0  0
  5 14  1  0  0  0  0
  6 16  1  0  0  0  0
  7 10  1  0  0  0  0
  7 15  2  0  0  0  0
  8 11  1  0  0  0  0
  8 13  2  0  0  0  0
  9 15  1  0  0  0  0
  9 17  2  0  0  0  0
 10 22  2  0  0  0  0
 11 16  2  0  0  0  0
 11 21  1  0  0  0  0
 12 23  1  0  0  0  0
 13 24  1  0  0  0  0
 14 28  1  0  0  0  0
 15 28  1  0  0  0  0
 16 32  1  0  0  0  0
 17 18  1  0  0  0  0
 17 22  1  0  0  0  0
 18 25  1  0  0  0  0
 18 26  2  0  0  0  0
 19 23  1  0  0  0  0
 19 24  1  0  0  0  0
 19 27  2  0  0  0  0
 20 25  1  0  0  0  0
 21 29  1  0  0  0  0
 21 30  1  0  0  0  0
 21 31  1  0  0  0  0
  1 33  1  0  0  0  0
  2 34  1  0  0  0  0
  3 35  1  0  0  0  0
  4 36  1  0  0  0  0
  5 37  1  0  0  0  0
  6 38  1  0  0  0  0
  7 39  1  0  0  0  0
  8 40  1  0  0  0  0
  9 41  1  0  0  0  0
 10 42  1  0  0  0  0
 20 43  1  0  0  0  0
 20 44  1  0  0  0  0
 20 45  1  0  0  0  0
 23 46  1  0  0  0  0
 24 47  1  0  0  0  0
 25 48  1  0  0  0  0
M  END
> <Name>
A_84

> <SourceTag>
A_84

> <Gold.Version>
5.2

> <Gold.Id.Protein>
6HGV|6HGV_protein|mol2

> <Gold.Goldscore.Fitness>
85.0612

> <Gold.Goldscore.Internal.Vdw>
-0.7518

> <Gold.Goldscore.Internal.Torsion>
-8.7820

> <Gold.Goldscore.External.Vdw>
61.9321

> <Gold.Goldscore.Internal.HBond>
0.0000

> <Gold.Goldscore.External.HBond>
1.0741

> <Gold.Goldscore.Internal.Correction>
-8.3643

> <Gold.Goldscore.Hbonds>
donor molecule, donor type, donor heavy atom, donor atom, acceptor molecule, acceptor atom, score
      L1  H    24    47       P1  2185  0.18

> <Gold.Goldscore.Internal.Vdw.Weighted>
-0.7518

> <Gold.Goldscore.Internal.Torsion.Weighted>
-8.7820

> <Gold.Goldscore.External.Vdw.Weighted>
85.1566

> <Gold.Goldscore.Internal.HBond.Weighted>
0.0000

> <Gold.Goldscore.External.HBond.Weighted>
1.0741

> <Gold.Goldscore.Internal.Correction.Weighted>
-8.3643

> <Gold.Protein.RotatedTorsions>
[ 3781 1176 1175 1172 ] final  -31.63 input   60.00 | X-H torsion
[ 3847 1247 1246 1244 ] final  100.34 input   60.00 | X-H torsion
[ 4507 1931 1930 1928 ] final -111.09 input   60.00 | X-H torsion
[ 3677 1070 1069 1066 ] final  -70.29 input   60.00 | X-H torsion
[ 3525  925  924  922 ] final   63.64 input   59.99 | X-H torsion
[ 4531 1957 1955 1953 ] final  160.12 input   60.00 | X-H torsion

> <Gold.Protein.ActiveResidues>
 PHE267  PRO268  MET310  ASP335  TRP336  MET339  TYR343  THR360  PRO361  ILE363 
 PRO371  SER374  ILE375  ASN378  PHE381  TYR383  GLN384  PHE387  LEU408  LEU417 
 MET419  LEU428  TYR466  MET469  ASN472  ASP496  VAL498  LEU499  MET503  HIS524 
 TRP525 

> <Gold.Protein.RotatedAtoms>
   -2.7513  -29.8795  -30.8601 H   0  0  0  0  0  0  0  0  0  0  0  0  # atno 3525 bound_to 925 
  -12.1765  -23.8447  -31.2514 H   0  0  0  0  0  0  0  0  0  0  0  0  # atno 3677 bound_to 1070
  -10.5741  -36.9523  -34.0279 H   0  0  0  0  0  0  0  0  0  0  0  0  # atno 3781 bound_to 1176
  -14.3981  -28.5653  -37.6282 H   0  0  0  0  0  0  0  0  0  0  0  0  # atno 3847 bound_to 1247
  -13.5561  -24.6151  -40.4322 H   0  0  0  0  0  0  0  0  0  0  0  0  # atno 4507 bound_to 1931
   -1.7531  -33.9596  -36.9241 H   0  0  0  0  0  0  0  0  0  0  0  0  # atno 4531 bound_to 1957
   -9.2572  -36.3481  -33.2871 LP  0  0  0  0  0  0  0  0  0  0  0  0  # atno 5205 bound_to 1176
  -10.2756  -37.3321  -32.4739 LP  0  0  0  0  0  0  0  0  0  0  0  0  # atno 5206 bound_to 1176
  -15.9210  -28.4762  -37.0618 LP  0  0  0  0  0  0  0  0  0  0  0  0  # atno 5215 bound_to 1247
  -15.2509  -27.1922  -37.8160 LP  0  0  0  0  0  0  0  0  0  0  0  0  # atno 5216 bound_to 1247
  -12.4715  -23.8620  -39.4812 LP  0  0  0  0  0  0  0  0  0  0  0  0  # atno 5217 bound_to 1931
  -13.1637  -25.2568  -38.9892 LP  0  0  0  0  0  0  0  0  0  0  0  0  # atno 5218 bound_to 1931
  -11.1134  -22.6243  -31.0820 LP  0  0  0  0  0  0  0  0  0  0  0  0  # atno 5224 bound_to 1070
  -12.5626  -22.5586  -30.3321 LP  0  0  0  0  0  0  0  0  0  0  0  0  # atno 5225 bound_to 1070

$$$$
A_29|SEH_inhibs_minimized|sdf|24|dock5
  -GOLD-   41821 9413D 1   1.00000     0.00000

 53 55  0  0  0  0  0  0  0  0  1 V2000
  -12.6251  -29.8637  -32.2463 C   0  0  0  0  0  0  0  0  0  0  0  0
  -11.2639  -29.7429  -31.9665 C   0  0  0  0  0  0  0  0  0  0  0  0
  -13.1504  -29.3026  -33.4103 C   0  0  0  0  0  0  0  0  0  0  0  0
  -10.4281  -29.0608  -32.8509 C   0  0  0  0  0  0  0  0  0  0  0  0
  -12.3146  -28.6207  -34.2946 C   0  0  0  0  0  0  0  0  0  0  0  0
  -15.8298  -25.4527  -37.2708 C   0  0  0  0  0  0  0  0  0  0  0  0
  -14.8627  -23.5458  -38.3958 C   0  0  0  0  0  0  0  0  0  0  0  0
  -17.0631  -25.1751  -37.8602 C   0  0  0  0  0  0  0  0  0  0  0  0
  -16.0959  -23.2682  -38.9853 C   0  0  0  0  0  0  0  0  0  0  0  0
  -10.9535  -28.4999  -34.0149 C   0  0  0  0  0  0  0  0  0  0  0  0
  -14.7295  -24.6382  -37.5387 C   0  0  0  0  0  0  0  0  0  0  0  0
  -17.1961  -24.0828  -38.7175 C   0  0  0  0  0  0  0  0  0  0  0  0
   -8.4400  -31.1256  -35.9713 C   0  0  0  0  0  0  0  0  0  0  0  0
  -12.9441  -26.1755  -36.6484 C   0  0  0  0  0  0  0  0  0  0  0  0
  -10.3919  -25.3860  -34.0684 C   0  0  0  0  0  0  0  0  0  0  0  0
   -9.3747  -26.4999  -34.3238 C   0  0  0  0  0  0  0  0  0  0  0  0
  -11.0807  -24.9779  -35.3638 C   0  0  0  0  0  0  0  0  0  0  0  0
  -10.7238  -27.2428  -36.2966 C   0  0  0  0  0  0  0  0  0  0  0  0
  -10.0284  -27.7450  -34.9942 C   0  0  2  0  0  0  0  0  0  0  0  0
   -8.1677  -33.4340  -36.4141 C   0  0  0  0  0  0  0  0  0  0  0  0
   -9.4906  -30.0400  -35.9138 C   0  0  0  0  0  0  0  0  0  0  0  0
   -8.9088  -28.7240  -35.4173 C   0  0  0  0  0  0  0  0  0  0  0  0
  -11.6647  -26.1403  -36.0476 N   0  0  0  0  0  0  0  0  0  0  0  0
  -13.4768  -24.9204  -36.9401 N   0  0  0  0  0  0  0  0  0  0  0  0
   -7.2488  -30.9677  -35.7418 O   0  0  0  0  0  0  0  0  0  0  0  0
  -13.5355  -27.2379  -36.8566 O   0  0  0  0  0  0  0  0  0  0  0  0
   -9.0396  -32.3028  -36.3196 O   0  0  0  0  0  0  0  0  0  0  0  0
  -18.7179  -23.7404  -39.4451 Cl  0  0  0  0  0  0  0  0  0  0  0  0
  -13.2759  -30.3956  -31.5584 H   0  0  0  0  0  0  0  0  0  0  0  0
  -10.8544  -30.1806  -31.0611 H   0  0  0  0  0  0  0  0  0  0  0  0
  -14.2103  -29.3970  -33.6285 H   0  0  0  0  0  0  0  0  0  0  0  0
   -9.3686  -28.9719  -32.6253 H   0  0  0  0  0  0  0  0  0  0  0  0
  -12.7327  -28.1879  -35.1995 H   0  0  0  0  0  0  0  0  0  0  0  0
  -15.7373  -26.3064  -36.6043 H   0  0  0  0  0  0  0  0  0  0  0  0
  -14.0120  -22.9045  -38.6112 H   0  0  0  0  0  0  0  0  0  0  0  0
  -17.9118  -25.8181  -37.6427 H   0  0  0  0  0  0  0  0  0  0  0  0
  -16.1854  -22.4138  -39.6512 H   0  0  0  0  0  0  0  0  0  0  0  0
  -11.1388  -25.7176  -33.3374 H   0  0  0  0  0  0  0  0  0  0  0  0
   -9.8836  -24.5183  -33.6330 H   0  0  0  0  0  0  0  0  0  0  0  0
   -8.5693  -26.1125  -34.9618 H   0  0  0  0  0  0  0  0  0  0  0  0
   -8.9131  -26.7849  -33.3697 H   0  0  0  0  0  0  0  0  0  0  0  0
  -11.8243  -24.2180  -35.1251 H   0  0  0  0  0  0  0  0  0  0  0  0
  -10.3611  -24.5256  -36.0563 H   0  0  0  0  0  0  0  0  0  0  0  0
   -9.9761  -26.8615  -37.0044 H   0  0  0  0  0  0  0  0  0  0  0  0
  -11.2322  -28.0762  -36.7948 H   0  0  0  0  0  0  0  0  0  0  0  0
   -8.7562  -34.3329  -36.6132 H   0  0  0  0  0  0  0  0  0  0  0  0
   -7.6142  -33.5476  -35.4786 H   0  0  0  0  0  0  0  0  0  0  0  0
   -7.4640  -33.2729  -37.2343 H   0  0  0  0  0  0  0  0  0  0  0  0
   -9.9027  -29.9098  -36.9208 H   0  0  0  0  0  0  0  0  0  0  0  0
  -10.2891  -30.3727  -35.2410 H   0  0  0  0  0  0  0  0  0  0  0  0
   -8.2518  -28.8951  -34.5612 H   0  0  0  0  0  0  0  0  0  0  0  0
   -8.3081  -28.2521  -36.1987 H   0  0  0  0  0  0  0  0  0  0  0  0
  -12.8826  -24.0847  -36.6880 H   0  0  0  0  0  0  0  0  0  0  0  0
  1  2  2  0  0  0  0
  1  3  1  0  0  0  0
  2  4  1  0  0  0  0
  3  5  2  0  0  0  0
  4 10  2  0  0  0  0
  5 10  1  0  0  0  0
  6  8  1  0  0  0  0
  6 11  2  0  0  0  0
  7  9  2  0  0  0  0
  7 11  1  0  0  0  0
  8 12  2  0  0  0  0
  9 12  1  0  0  0  0
 10 19  1  0  0  0  0
 11 24  1  0  0  0  0
 12 28  1  0  0  0  0
 13 21  1  0  0  0  0
 13 25  2  0  0  0  0
 13 27  1  0  0  0  0
 14 23  1  0  0  0  0
 14 24  1  0  0  0  0
 14 26  2  0  0  0  0
 15 16  1  0  0  0  0
 15 17  1  0  0  0  0
 16 19  1  0  0  0  0
 17 23  1  0  0  0  0
 18 19  1  0  0  0  0
 18 23  1  0  0  0  0
 19 22  1  0  0  0  0
 20 27  1  0  0  0  0
 21 22  1  0  0  0  0
  1 29  1  0  0  0  0
  2 30  1  0  0  0  0
  3 31  1  0  0  0  0
  4 32  1  0  0  0  0
  5 33  1  0  0  0  0
  6 34  1  0  0  0  0
  7 35  1  0  0  0  0
  8 36  1  0  0  0  0
  9 37  1  0  0  0  0
 15 38  1  0  0  0  0
 15 39  1  0  0  0  0
 16 40  1  0  0  0  0
 16 41  1  0  0  0  0
 17 42  1  0  0  0  0
 17 43  1  0  0  0  0
 18 44  1  0  0  0  0
 18 45  1  0  0  0  0
 20 46  1  0  0  0  0
 20 47  1  0  0  0  0
 20 48  1  0  0  0  0
 21 49  1  0  0  0  0
 21 50  1  0  0  0  0
 22 51  1  0  0  0  0
 22 52  1  0  0  0  0
 24 53  1  0  0  0  0
M  END
> <Name>
A_29

> <SourceTag>
A_29

> <Gold.Version>
5.2

> <Gold.Id.Protein>
6HGV|6HGV_protein|mol2

> <Gold.Goldscore.Fitness>
59.5394

> <Gold.Goldscore.Internal.Vdw>
-21.7213

> <Gold.Goldscore.Internal.Torsion>
-8.8401

> <Gold.Goldscore.External.Vdw>
43.4439

> <Gold.Goldscore.Internal.HBond>
0.0000

> <Gold.Goldscore.External.HBond>
1.2547

> <Gold.Goldscore.Internal.Correction>
-29.1107

> <Gold.Goldscore.Hbonds>
donor molecule, donor type, donor heavy atom, donor atom, acceptor molecule, acceptor atom, score
      P1  H  1247  3847       L1    26  0.04
      L1  H    24    53       P1   854  0.20

> <Gold.Goldscore.Internal.Vdw.Weighted>
-21.7213

> <Gold.Goldscore.Internal.Torsion.Weighted>
-8.8401

> <Gold.Goldscore.External.Vdw.Weighted>
59.7354

> <Gold.Goldscore.Internal.HBond.Weighted>
0.0000

> <Gold.Goldscore.External.HBond.Weighted>
1.2547

> <Gold.Goldscore.Internal.Correction.Weighted>
-29.1107

> <Gold.Protein.RotatedTorsions>
[ 3781 1176 1175 1172 ] final -154.90 input   60.00 | X-H torsion
[ 3847 1247 1246 1244 ] final  135.22 input   60.00 | X-H torsion
[ 4507 1931 1930 1928 ] final -126.08 input   60.00 | X-H torsion
[ 3677 1070 1069 1066 ] final -117.28 input   60.00 | X-H torsion
[ 3525  925  924  922 ] final   36.69 input   59.99 | X-H torsion
[ 4531 1957 1955 1953 ] final  -97.76 input   60.00 | X-H torsion

> <Gold.Protein.ActiveResidues>
 PHE267  PRO268  MET310  ASP335  TRP336  MET339  TYR343  THR360  PRO361  ILE363 
 PRO371  SER374  ILE375  ASN378  PHE381  TYR383  GLN384  PHE387  LEU408  LEU417 
 MET419  LEU428  TYR466  MET469  ASN472  ASP496  VAL498  LEU499  MET503  HIS524 
 TRP525 

> <Gold.Protein.RotatedAtoms>
   -3.1510  -29.7084  -30.8248 H   0  0  0  0  0  0  0  0  0  0  0  0  # atno 3525 bound_to 925 
  -11.4972  -23.6075  -31.4503 H   0  0  0  0  0  0  0  0  0  0  0  0  # atno 3677 bound_to 1070
   -9.2527  -36.3671  -33.2367 H   0  0  0  0  0  0  0  0  0  0  0  0  # atno 3781 bound_to 1176
  -14.3204  -28.0569  -37.8531 H   0  0  0  0  0  0  0  0  0  0  0  0  # atno 3847 bound_to 1247
  -13.4367  -24.4070  -40.4781 H   0  0  0  0  0  0  0  0  0  0  0  0  # atno 4507 bound_to 1931
   -1.4715  -32.5309  -36.9529 H   0  0  0  0  0  0  0  0  0  0  0  0  # atno 4531 bound_to 1957
  -10.3188  -37.3512  -32.4998 LP  0  0  0  0  0  0  0  0  0  0  0  0  # atno 5205 bound_to 1176
  -10.5448  -36.9184  -34.0581 LP  0  0  0  0  0  0  0  0  0  0  0  0  # atno 5206 bound_to 1176
  -15.5055  -28.8591  -37.0784 LP  0  0  0  0  0  0  0  0  0  0  0  0  # atno 5215 bound_to 1247
  -15.7446  -27.3213  -37.5728 LP  0  0  0  0  0  0  0  0  0  0  0  0  # atno 5216 bound_to 1247
  -12.4323  -23.9823  -39.2703 LP  0  0  0  0  0  0  0  0  0  0  0  0  # atno 5217 bound_to 1931
  -13.3231  -25.3460  -39.1539 LP  0  0  0  0  0  0  0  0  0  0  0  0  # atno 5218 bound_to 1931
  -11.5418  -22.2022  -30.6310 LP  0  0  0  0  0  0  0  0  0  0  0  0  # atno 5224 bound_to 1070
  -12.8182  -23.2196  -30.5828 LP  0  0  0  0  0  0  0  0  0  0  0  0  # atno 5225 bound_to 1070

$$$$
A_88|SEH_inhibs_minimized|sdf|53|dock4
  -GOLD-   4182110423D 1   1.00000     0.00000

 29 30  0  0  0  0  0  0  0  0  1 V2000
  -16.2538  -25.7135  -36.4815 C   0  0  0  0  0  0  0  0  0  0  0  0
  -14.2435  -26.7898  -35.3948 C   0  0  0  0  0  0  0  0  0  0  0  0
   -9.4234  -25.8695  -34.5003 C   0  0  0  0  0  0  0  0  0  0  0  0
  -10.0877  -26.4966  -35.7232 C   0  0  0  0  0  0  0  0  0  0  0  0
  -10.4463  -25.4563  -33.4455 C   0  0  0  0  0  0  0  0  0  0  0  0
  -11.0018  -27.6588  -35.3330 C   0  0  0  0  0  0  0  0  0  0  0  0
  -11.3593  -26.6212  -33.0605 C   0  0  0  0  0  0  0  0  0  0  0  0
  -12.0407  -27.2695  -34.2730 C   0  0  0  0  0  0  0  0  0  0  0  0
  -16.5631  -25.8884  -37.7457 N   0  0  0  0  0  0  0  0  0  0  0  0
  -17.9362  -25.8100  -37.8062 N   0  0  0  0  0  0  0  0  0  0  0  0
  -18.4550  -25.5927  -36.6039 N   0  0  0  0  0  0  0  0  0  0  0  0
  -17.4013  -25.5326  -35.7776 N   0  0  0  0  0  0  0  0  0  0  0  0
  -14.9823  -25.6992  -35.8621 N   0  0  0  0  0  0  0  0  0  0  0  0
  -13.0318  -26.3560  -34.8461 N   0  0  0  0  0  0  0  0  0  0  0  0
  -14.5742  -27.9722  -35.4406 O   0  0  0  0  0  0  0  0  0  0  0  0
   -8.7100  -26.5793  -34.0639 H   0  0  0  0  0  0  0  0  0  0  0  0
   -8.8454  -24.9892  -34.8114 H   0  0  0  0  0  0  0  0  0  0  0  0
  -10.6673  -25.7367  -36.2584 H   0  0  0  0  0  0  0  0  0  0  0  0
   -9.3159  -26.8569  -36.4139 H   0  0  0  0  0  0  0  0  0  0  0  0
   -9.9243  -25.0927  -32.5525 H   0  0  0  0  0  0  0  0  0  0  0  0
  -11.0509  -24.6251  -33.8240 H   0  0  0  0  0  0  0  0  0  0  0  0
  -11.5133  -28.0389  -36.2347 H   0  0  0  0  0  0  0  0  0  0  0  0
  -10.3873  -28.4979  -34.9653 H   0  0  0  0  0  0  0  0  0  0  0  0
  -10.7732  -27.3774  -32.5114 H   0  0  0  0  0  0  0  0  0  0  0  0
  -12.1246  -26.2651  -32.3489 H   0  0  0  0  0  0  0  0  0  0  0  0
  -12.5917  -28.1516  -33.9569 H   0  0  0  0  0  0  0  0  0  0  0  0
  -17.5436  -25.3712  -34.7875 H   0  0  0  0  0  0  0  0  0  0  0  0
  -14.5582  -24.7823  -35.7456 H   0  0  0  0  0  0  0  0  0  0  0  0
  -12.8298  -25.3607  -34.8451 H   0  0  0  0  0  0  0  0  0  0  0  0
  1  9  2  0  0  0  0
  1 12  1  0  0  0  0
  1 13  1  0  0  0  0
  2 13  1  0  0  0  0
  2 14  1  0  0  0  0
  2 15  2  0  0  0  0
  3  4  1  0  0  0  0
  3  5  1  0  0  0  0
  4  6  1  0  0  0  0
  5  7  1  0  0  0  0
  6  8  1  0  0  0  0
  7  8  1  0  0  0  0
  8 14  1  0  0  0  0
  9 10  1  0  0  0  0
 10 11  2  0  0  0  0
 11 12  1  0  0  0  0
  3 16  1  0  0  0  0
  3 17  1  0  0  0  0
  4 18  1  0  0  0  0
  4 19  1  0  0  0  0
  5 20  1  0  0  0  0
  5 21  1  0  0  0  0
  6 22  1  0  0  0  0
  6 23  1  0  0  0  0
  7 24  1  0  0  0  0
  7 25  1  0  0  0  0
  8 26  1  0  0  0  0
 12 27  1  0  0  0  0
 13 28  1  0  0  0  0
 14 29  1  0  0  0  0
M  END
> <Name>
A_88

> <SourceTag>
A_88

> <Gold.Version>
5.2

> <Gold.Id.Protein>
6HGV|6HGV_protein|mol2

> <Gold.Goldscore.Fitness>
45.7723

> <Gold.Goldscore.Internal.Vdw>
-0.4134

> <Gold.Goldscore.Internal.Torsion>
-1.3953

> <Gold.Goldscore.External.Vdw>
31.2310

> <Gold.Goldscore.Internal.HBond>
0.0000

> <Gold.Goldscore.External.HBond>
3.8249

> <Gold.Goldscore.Internal.Correction>
-0.8134

> <Gold.Goldscore.Hbonds>
donor molecule, donor type, donor heavy atom, donor atom, acceptor molecule, acceptor atom, score
      L1  H    13    28       P1   853  0.61
      L1  H    14    29       P1   853  0.03

> <Gold.Goldscore.Internal.Vdw.Weighted>
-0.4134

> <Gold.Goldscore.Internal.Torsion.Weighted>
-1.3953

> <Gold.Goldscore.External.Vdw.Weighted>
42.9427

> <Gold.Goldscore.Internal.HBond.Weighted>
0.0000

> <Gold.Goldscore.External.HBond.Weighted>
3.8249

> <Gold.Goldscore.Internal.Correction.Weighted>
-0.8134

> <Gold.Protein.RotatedTorsions>
[ 3781 1176 1175 1172 ] final  146.88 input   60.00 | X-H torsion
[ 3847 1247 1246 1244 ] final  153.17 input   60.00 | X-H torsion
[ 4507 1931 1930 1928 ] final   24.41 input   60.00 | X-H torsion
[ 3677 1070 1069 1066 ] final  -75.03 input   60.00 | X-H torsion
[ 3525  925  924  922 ] final  -50.52 input   59.99 | X-H torsion
[ 4531 1957 1955 1953 ] final    0.23 input   60.00 | X-H torsion

> <Gold.Protein.ActiveResidues>
 PHE267  PRO268  MET310  ASP335  TRP336  MET339  TYR343  THR360  PRO361  ILE363 
 PRO371  SER374  ILE375  ASN378  PHE381  TYR383  GLN384  PHE387  LEU408  LEU417 
 MET419  LEU428  TYR466  MET469  ASN472  ASP496  VAL498  LEU499  MET503  HIS524 
 TRP525 

> <Gold.Protein.RotatedAtoms>
   -3.7496  -29.5512  -29.6913 H   0  0  0  0  0  0  0  0  0  0  0  0  # atno 3525 bound_to 925 
  -12.1070  -23.8450  -31.2857 H   0  0  0  0  0  0  0  0  0  0  0  0  # atno 3677 bound_to 1070
   -9.5133  -36.8203  -32.4908 H   0  0  0  0  0  0  0  0  0  0  0  0  # atno 3781 bound_to 1176
  -14.4049  -27.7864  -37.9235 H   0  0  0  0  0  0  0  0  0  0  0  0  # atno 3847 bound_to 1247
  -12.9907  -25.1135  -38.8717 H   0  0  0  0  0  0  0  0  0  0  0  0  # atno 4507 bound_to 1931
   -2.8594  -32.5034  -36.6886 H   0  0  0  0  0  0  0  0  0  0  0  0  # atno 4531 bound_to 1957
  -10.8217  -37.4001  -33.2653 LP  0  0  0  0  0  0  0  0  0  0  0  0  # atno 5205 bound_to 1176
   -9.7793  -36.4131  -34.0437 LP  0  0  0  0  0  0  0  0  0  0  0  0  # atno 5206 bound_to 1176
  -15.2355  -28.9518  -37.1489 LP  0  0  0  0  0  0  0  0  0  0  0  0  # atno 5215 bound_to 1247
  -15.9296  -27.5010  -37.4315 LP  0  0  0  0  0  0  0  0  0  0  0  0  # atno 5216 bound_to 1247
  -13.6501  -24.8280  -40.3318 LP  0  0  0  0  0  0  0  0  0  0  0  0  # atno 5217 bound_to 1931
  -12.5545  -23.7888  -39.7102 LP  0  0  0  0  0  0  0  0  0  0  0  0  # atno 5218 bound_to 1931
  -11.1346  -22.5640  -31.0372 LP  0  0  0  0  0  0  0  0  0  0  0  0  # atno 5224 bound_to 1070
  -12.6114  -22.6187  -30.3423 LP  0  0  0  0  0  0  0  0  0  0  0  0  # atno 5225 bound_to 1070

$$$$
A_46|SEH_inhibs_minimized|sdf|32|dock8
  -GOLD-   41821 9563D 1   1.00000     0.00000

 59 62  0  0  0  0  0  0  0  0  1 V2000
   -5.7995  -30.9508  -32.0999 C   0  0  0  0  0  0  0  0  0  0  0  0
   -4.3170  -32.2310  -33.5143 C   0  0  0  0  0  0  0  0  0  0  0  0
   -8.0667  -33.1583  -33.7461 C   0  0  0  0  0  0  0  0  0  0  0  0
   -7.1759  -33.2730  -35.9890 C   0  0  0  0  0  0  0  0  0  0  0  0
   -4.9136  -31.1030  -31.0334 C   0  0  0  0  0  0  0  0  0  0  0  0
   -3.4309  -32.3832  -32.4478 C   0  0  0  0  0  0  0  0  0  0  0  0
   -8.7893  -34.3294  -33.9730 C   0  0  0  0  0  0  0  0  0  0  0  0
   -7.8984  -34.4443  -36.2160 C   0  0  0  0  0  0  0  0  0  0  0  0
  -17.2122  -23.9987  -37.1671 C   0  0  0  0  0  0  0  0  0  0  0  0
  -16.6775  -24.7570  -36.1489 C   0  0  0  0  0  0  0  0  0  0  0  0
  -15.1338  -23.7795  -38.0954 C   0  0  0  0  0  0  0  0  0  0  0  0
   -5.5011  -31.5147  -33.3404 C   0  0  0  0  0  0  0  0  0  0  0  0
   -7.2599  -32.6300  -34.7540 C   0  0  0  0  0  0  0  0  0  0  0  0
   -3.7293  -31.8192  -31.2074 C   0  0  0  0  0  0  0  0  0  0  0  0
   -8.7051  -34.9725  -35.2080 C   0  0  0  0  0  0  0  0  0  0  0  0
  -14.5990  -24.5378  -37.0772 C   0  0  0  0  0  0  0  0  0  0  0  0
  -10.3850  -28.8622  -35.0476 C   0  0  0  0  0  0  0  0  0  0  0  0
  -13.2445  -26.9678  -36.0044 C   0  0  0  0  0  0  0  0  0  0  0  0
  -11.2398  -25.4422  -35.8747 C   0  0  0  0  0  0  0  0  0  0  0  0
  -12.6301  -27.8226  -34.8993 C   0  0  0  0  0  0  0  0  0  0  0  0
  -10.6797  -26.3253  -34.7641 C   0  0  0  0  0  0  0  0  0  0  0  0
  -12.7685  -25.5165  -35.9162 C   0  0  0  0  0  0  0  0  0  0  0  0
   -7.3683  -30.0879  -34.3876 C   0  0  0  0  0  0  0  0  0  0  0  0
   -8.1520  -29.7550  -35.6592 C   0  0  0  0  0  0  0  0  0  0  0  0
   -6.4690  -31.3481  -34.5050 C   0  0  0  0  0  0  0  0  0  0  0  0
  -16.4500  -23.4962  -38.1587 N   0  0  0  0  0  0  0  0  0  0  0  0
  -15.3613  -25.0402  -36.0857 N   0  0  0  0  0  0  0  0  0  0  0  0
  -11.1687  -27.7044  -34.9147 N   0  0  0  0  0  0  0  0  0  0  0  0
   -9.0773  -28.6597  -35.4712 N   0  0  0  0  0  0  0  0  0  0  0  0
  -10.8202  -29.9942  -34.8105 O   0  0  0  0  0  0  0  0  0  0  0  0
  -13.2554  -24.8043  -37.0474 O   0  0  0  0  0  0  0  0  0  0  0  0
   -2.8785  -31.9662  -30.1834 F   0  0  0  0  0  0  0  0  0  0  0  0
   -9.3993  -36.0968  -35.4267 F   0  0  0  0  0  0  0  0  0  0  0  0
   -6.7200  -30.3916  -31.9550 H   0  0  0  0  0  0  0  0  0  0  0  0
   -4.0768  -32.6743  -34.4771 H   0  0  0  0  0  0  0  0  0  0  0  0
   -8.1387  -32.6638  -32.7809 H   0  0  0  0  0  0  0  0  0  0  0  0
   -6.5504  -32.8681  -36.7801 H   0  0  0  0  0  0  0  0  0  0  0  0
   -5.1460  -30.6646  -30.0675 H   0  0  0  0  0  0  0  0  0  0  0  0
   -2.5092  -32.9411  -32.5831 H   0  0  0  0  0  0  0  0  0  0  0  0
   -9.4179  -34.7403  -33.1887 H   0  0  0  0  0  0  0  0  0  0  0  0
   -7.8333  -34.9447  -37.1776 H   0  0  0  0  0  0  0  0  0  0  0  0
  -18.2699  -23.7716  -37.2172 H   0  0  0  0  0  0  0  0  0  0  0  0
  -17.2907  -25.1604  -35.3525 H   0  0  0  0  0  0  0  0  0  0  0  0
  -14.5250  -23.3736  -38.8946 H   0  0  0  0  0  0  0  0  0  0  0  0
  -12.9757  -27.3798  -36.9861 H   0  0  0  0  0  0  0  0  0  0  0  0
  -14.3388  -27.0060  -35.9509 H   0  0  0  0  0  0  0  0  0  0  0  0
  -10.9212  -24.4031  -35.7306 H   0  0  0  0  0  0  0  0  0  0  0  0
  -10.8307  -25.7540  -36.8445 H   0  0  0  0  0  0  0  0  0  0  0  0
  -12.9788  -27.4907  -33.9143 H   0  0  0  0  0  0  0  0  0  0  0  0
  -12.9428  -28.8637  -35.0248 H   0  0  0  0  0  0  0  0  0  0  0  0
   -9.5923  -26.2585  -34.7452 H   0  0  0  0  0  0  0  0  0  0  0  0
  -11.0281  -25.9677  -33.7872 H   0  0  0  0  0  0  0  0  0  0  0  0
  -13.1891  -25.0488  -35.0180 H   0  0  0  0  0  0  0  0  0  0  0  0
   -6.7740  -29.2061  -34.1205 H   0  0  0  0  0  0  0  0  0  0  0  0
   -8.0836  -30.2376  -33.5671 H   0  0  0  0  0  0  0  0  0  0  0  0
   -8.7196  -30.6148  -36.0265 H   0  0  0  0  0  0  0  0  0  0  0  0
   -7.4584  -29.4513  -36.4501 H   0  0  0  0  0  0  0  0  0  0  0  0
   -5.8697  -31.1870  -35.4129 H   0  0  0  0  0  0  0  0  0  0  0  0
   -8.7626  -27.7163  -35.6540 H   0  0  0  0  0  0  0  0  0  0  0  0
  1  5  1  0  0  0  0
  1 12  2  0  0  0  0
  2  6  2  0  0  0  0
  2 12  1  0  0  0  0
  3  7  1  0  0  0  0
  3 13  2  0  0  0  0
  4  8  2  0  0  0  0
  4 13  1  0  0  0  0
  5 14  2  0  0  0  0
  6 14  1  0  0  0  0
  7 15  2  0  0  0  0
  8 15  1  0  0  0  0
  9 10  2  0  0  0  0
  9 26  1  0  0  0  0
 10 27  1  0  0  0  0
 11 16  1  0  0  0  0
 11 26  2  0  0  0  0
 12 25  1  0  0  0  0
 13 25  1  0  0  0  0
 14 32  1  0  0  0  0
 15 33  1  0  0  0  0
 16 27  2  0  0  0  0
 16 31  1  0  0  0  0
 17 28  1  0  0  0  0
 17 29  1  0  0  0  0
 17 30  2  0  0  0  0
 18 20  1  0  0  0  0
 18 22  1  0  0  0  0
 19 21  1  0  0  0  0
 19 22  1  0  0  0  0
 20 28  1  0  0  0  0
 21 28  1  0  0  0  0
 22 31  1  0  0  0  0
 23 24  1  0  0  0  0
 23 25  1  0  0  0  0
 24 29  1  0  0  0  0
  1 34  1  0  0  0  0
  2 35  1  0  0  0  0
  3 36  1  0  0  0  0
  4 37  1  0  0  0  0
  5 38  1  0  0  0  0
  6 39  1  0  0  0  0
  7 40  1  0  0  0  0
  8 41  1  0  0  0  0
  9 42  1  0  0  0  0
 10 43  1  0  0  0  0
 11 44  1  0  0  0  0
 18 45  1  0  0  0  0
 18 46  1  0  0  0  0
 19 47  1  0  0  0  0
 19 48  1  0  0  0  0
 20 49  1  0  0  0  0
 20 50  1  0  0  0  0
 21 51  1  0  0  0  0
 21 52  1  0  0  0  0
 22 53  1  0  0  0  0
 23 54  1  0  0  0  0
 23 55  1  0  0  0  0
 24 56  1  0  0  0  0
 24 57  1  0  0  0  0
 25 58  1  0  0  0  0
 29 59  1  0  0  0  0
M  END
> <Name>
A_46

> <SourceTag>
A_46

> <Gold.Version>
5.2

> <Gold.Id.Protein>
6HGV|6HGV_protein|mol2

> <Gold.Goldscore.Fitness>
68.0233

> <Gold.Goldscore.Internal.Vdw>
-12.8628

> <Gold.Goldscore.Internal.Torsion>
-4.8930

> <Gold.Goldscore.External.Vdw>
49.9943

> <Gold.Goldscore.Internal.HBond>
0.0000

> <Gold.Goldscore.External.HBond>
1.1604

> <Gold.Goldscore.Internal.Correction>
-15.8764

> <Gold.Goldscore.Hbonds>
donor molecule, donor type, donor heavy atom, donor atom, acceptor molecule, acceptor atom, score
      P1  H  1256  3854       L1    30  0.04
      P1  H  1931  4507       L1    31  0.54

> <Gold.Goldscore.Internal.Vdw.Weighted>
-12.8628

> <Gold.Goldscore.Internal.Torsion.Weighted>
-4.8930

> <Gold.Goldscore.External.Vdw.Weighted>
68.7422

> <Gold.Goldscore.Internal.HBond.Weighted>
0.0000

> <Gold.Goldscore.External.HBond.Weighted>
1.1604

> <Gold.Goldscore.Internal.Correction.Weighted>
-15.8764

> <Gold.Protein.RotatedTorsions>
[ 3781 1176 1175 1172 ] final  118.84 input   60.00 | X-H torsion
[ 3847 1247 1246 1244 ] final  -96.24 input   60.00 | X-H torsion
[ 4507 1931 1930 1928 ] final   40.26 input   60.00 | X-H torsion
[ 3677 1070 1069 1066 ] final  -81.39 input   60.00 | X-H torsion
[ 3525  925  924  922 ] final -119.59 input   59.99 | X-H torsion
[ 4531 1957 1955 1953 ] final   67.99 input   60.00 | X-H torsion

> <Gold.Protein.ActiveResidues>
 PHE267  PRO268  MET310  ASP335  TRP336  MET339  TYR343  THR360  PRO361  ILE363 
 PRO371  SER374  ILE375  ASN378  PHE381  TYR383  GLN384  PHE387  LEU408  LEU417 
 MET419  LEU428  TYR466  MET469  ASN472  ASP496  VAL498  LEU499  MET503  HIS524 
 TRP525 

> <Gold.Protein.RotatedAtoms>
   -3.0284  -29.9280  -29.0097 H   0  0  0  0  0  0  0  0  0  0  0  0  # atno 3525 bound_to 925 
  -12.0122  -23.8364  -31.3274 H   0  0  0  0  0  0  0  0  0  0  0  0  # atno 3677 bound_to 1070
   -9.8556  -37.0932  -32.3719 H   0  0  0  0  0  0  0  0  0  0  0  0  # atno 3781 bound_to 1176
  -15.8368  -27.4040  -37.5077 H   0  0  0  0  0  0  0  0  0  0  0  0  # atno 3847 bound_to 1247
  -12.8220  -24.9305  -38.8035 H   0  0  0  0  0  0  0  0  0  0  0  0  # atno 4507 bound_to 1931
   -3.0096  -33.5364  -36.6779 H   0  0  0  0  0  0  0  0  0  0  0  0  # atno 4531 bound_to 1957
  -10.8025  -37.2288  -33.6884 LP  0  0  0  0  0  0  0  0  0  0  0  0  # atno 5205 bound_to 1176
   -9.4539  -36.3096  -33.7403 LP  0  0  0  0  0  0  0  0  0  0  0  0  # atno 5206 bound_to 1176
  -14.3437  -27.9245  -37.8920 LP  0  0  0  0  0  0  0  0  0  0  0  0  # atno 5215 bound_to 1247
  -15.3794  -28.9134  -37.1071 LP  0  0  0  0  0  0  0  0  0  0  0  0  # atno 5216 bound_to 1247
  -13.6968  -25.0277  -40.1721 LP  0  0  0  0  0  0  0  0  0  0  0  0  # atno 5217 bound_to 1931
  -12.6776  -23.7734  -39.9385 LP  0  0  0  0  0  0  0  0  0  0  0  0  # atno 5218 bound_to 1931
  -11.1718  -22.4880  -30.9757 LP  0  0  0  0  0  0  0  0  0  0  0  0  # atno 5224 bound_to 1070
  -12.6696  -22.7033  -30.3619 LP  0  0  0  0  0  0  0  0  0  0  0  0  # atno 5225 bound_to 1070

$$$$
A_78|SEH_inhibs_minimized|sdf|47|dock5
  -GOLD-   4182110333D 1   1.00000     0.00000

 68 71  0  0  0  0  0  0  0  0  1 V2000
  -10.9141  -33.5251  -34.9084 C   0  0  0  0  0  0  0  0  0  0  0  0
  -11.5615  -32.6634  -34.0230 C   0  0  0  0  0  0  0  0  0  0  0  0
   -9.8658  -33.0541  -35.6991 C   0  0  0  0  0  0  0  0  0  0  0  0
  -11.1606  -31.3306  -33.9284 C   0  0  0  0  0  0  0  0  0  0  0  0
   -9.4650  -31.7215  -35.6044 C   0  0  0  0  0  0  0  0  0  0  0  0
   -6.0678  -29.4938  -34.8502 C   0  0  0  0  0  0  0  0  0  0  0  0
   -7.3812  -31.0981  -33.6099 C   0  0  0  0  0  0  0  0  0  0  0  0
   -4.9448  -30.3103  -34.7173 C   0  0  0  0  0  0  0  0  0  0  0  0
   -6.2583  -31.9146  -33.4769 C   0  0  0  0  0  0  0  0  0  0  0  0
  -10.4489  -28.3316  -34.6915 C   0  0  0  0  0  0  0  0  0  0  0  0
  -10.1124  -30.8598  -34.7190 C   0  0  0  0  0  0  0  0  0  0  0  0
   -7.2861  -29.8877  -34.2965 C   0  0  0  0  0  0  0  0  0  0  0  0
   -5.0401  -31.5208  -34.0306 C   0  0  0  0  0  0  0  0  0  0  0  0
   -9.6973  -29.4790  -34.6207 C   0  0  0  0  0  0  0  0  0  0  0  0
   -9.5162  -27.2895  -34.5311 C   0  0  0  0  0  0  0  0  0  0  0  0
  -14.1036  -25.6344  -37.0874 C   0  0  0  0  0  0  0  0  0  0  0  0
  -18.3350  -23.2137  -39.7129 C   0  0  0  0  0  0  0  0  0  0  0  0
  -19.2497  -23.5297  -38.5344 C   0  0  0  0  0  0  0  0  0  0  0  0
  -16.8378  -23.2910  -39.4174 C   0  0  0  0  0  0  0  0  0  0  0  0
  -19.0117  -24.8835  -37.8674 C   0  0  0  0  0  0  0  0  0  0  0  0
  -16.3447  -24.7264  -39.2406 C   0  0  0  0  0  0  0  0  0  0  0  0
  -17.7289  -24.9144  -37.0410 C   0  0  0  0  0  0  0  0  0  0  0  0
  -16.4621  -25.2847  -37.8188 C   0  0  0  0  0  0  0  0  0  0  0  0
   -9.7884  -25.8063  -34.5254 C   0  0  0  0  0  0  0  0  0  0  0  0
  -11.2723  -25.4469  -34.6795 C   0  0  0  0  0  0  0  0  0  0  0  0
  -11.8185  -25.6090  -36.0967 C   0  0  0  0  0  0  0  0  0  0  0  0
   -8.2675  -27.7352  -34.3701 N   0  0  0  0  0  0  0  0  0  0  0  0
   -8.4101  -29.0703  -34.4291 N   0  0  0  0  0  0  0  0  0  0  0  0
   -2.8881  -31.8505  -32.4926 N   0  0  0  0  0  0  0  0  0  0  0  0
  -15.2948  -24.9212  -37.0414 N   0  0  0  0  0  0  0  0  0  0  0  0
  -13.1497  -25.0695  -36.2446 N   0  0  0  0  0  0  0  0  0  0  0  0
  -13.9122  -26.6331  -37.7799 O   0  0  0  0  0  0  0  0  0  0  0  0
   -4.0801  -33.8879  -33.5280 O   0  0  0  0  0  0  0  0  0  0  0  0
   -2.7732  -32.3349  -35.0206 O   0  0  0  0  0  0  0  0  0  0  0  0
   -3.6344  -32.5430  -33.8648 S   0  0  0  0  0  0  0  0  0  0  0  0
  -11.2260  -34.5628  -34.9822 H   0  0  0  0  0  0  0  0  0  0  0  0
  -12.3774  -33.0300  -33.4071 H   0  0  0  0  0  0  0  0  0  0  0  0
   -9.3621  -33.7253  -36.3887 H   0  0  0  0  0  0  0  0  0  0  0  0
  -11.6751  -30.6715  -33.2330 H   0  0  0  0  0  0  0  0  0  0  0  0
   -8.6466  -31.3695  -36.2278 H   0  0  0  0  0  0  0  0  0  0  0  0
   -5.9797  -28.5529  -35.3879 H   0  0  0  0  0  0  0  0  0  0  0  0
   -8.3245  -31.4173  -33.1733 H   0  0  0  0  0  0  0  0  0  0  0  0
   -4.0006  -29.9938  -35.1524 H   0  0  0  0  0  0  0  0  0  0  0  0
   -6.3434  -32.8557  -32.9400 H   0  0  0  0  0  0  0  0  0  0  0  0
  -11.5174  -28.2575  -34.8382 H   0  0  0  0  0  0  0  0  0  0  0  0
  -18.5797  -23.8792  -40.5503 H   0  0  0  0  0  0  0  0  0  0  0  0
  -18.5666  -22.1977  -40.0566 H   0  0  0  0  0  0  0  0  0  0  0  0
  -19.1668  -22.7308  -37.7869 H   0  0  0  0  0  0  0  0  0  0  0  0
  -20.2857  -23.5004  -38.8949 H   0  0  0  0  0  0  0  0  0  0  0  0
  -16.3148  -22.8625  -40.2822 H   0  0  0  0  0  0  0  0  0  0  0  0
  -16.5744  -22.6673  -38.5557 H   0  0  0  0  0  0  0  0  0  0  0  0
  -19.8525  -25.0614  -37.1848 H   0  0  0  0  0  0  0  0  0  0  0  0
  -19.0326  -25.6957  -38.6027 H   0  0  0  0  0  0  0  0  0  0  0  0
  -16.8918  -25.3831  -39.9290 H   0  0  0  0  0  0  0  0  0  0  0  0
  -15.2958  -24.7754  -39.5618 H   0  0  0  0  0  0  0  0  0  0  0  0
  -17.5979  -23.9517  -36.5289 H   0  0  0  0  0  0  0  0  0  0  0  0
  -17.8513  -25.6518  -36.2358 H   0  0  0  0  0  0  0  0  0  0  0  0
  -16.4134  -26.3781  -37.8970 H   0  0  0  0  0  0  0  0  0  0  0  0
   -9.1972  -25.3105  -35.3049 H   0  0  0  0  0  0  0  0  0  0  0  0
   -9.4207  -25.3961  -33.5756 H   0  0  0  0  0  0  0  0  0  0  0  0
  -11.4050  -24.4041  -34.3642 H   0  0  0  0  0  0  0  0  0  0  0  0
  -11.8764  -26.0595  -33.9990 H   0  0  0  0  0  0  0  0  0  0  0  0
  -11.8767  -26.6718  -36.3522 H   0  0  0  0  0  0  0  0  0  0  0  0
  -11.1750  -25.1224  -36.8355 H   0  0  0  0  0  0  0  0  0  0  0  0
   -2.4522  -32.4830  -31.8104 H   0  0  0  0  0  0  0  0  0  0  0  0
   -2.3874  -30.9617  -32.6135 H   0  0  0  0  0  0  0  0  0  0  0  0
  -15.3499  -24.1107  -36.4371 H   0  0  0  0  0  0  0  0  0  0  0  0
  -13.3823  -24.2168  -35.7451 H   0  0  0  0  0  0  0  0  0  0  0  0
  1  2  2  0  0  0  0
  1  3  1  0  0  0  0
  2  4  1  0  0  0  0
  3  5  2  0  0  0  0
  4 11  2  0  0  0  0
  5 11  1  0  0  0  0
  6  8  1  0  0  0  0
  6 12  2  0  0  0  0
  7  9  2  0  0  0  0
  7 12  1  0  0  0  0
  8 13  2  0  0  0  0
  9 13  1  0  0  0  0
 10 14  2  0  0  0  0
 10 15  1  0  0  0  0
 11 14  1  0  0  0  0
 12 28  1  0  0  0  0
 13 35  1  0  0  0  0
 14 28  1  0  0  0  0
 15 24  1  0  0  0  0
 15 27  2  0  0  0  0
 16 30  1  0  0  0  0
 16 31  1  0  0  0  0
 16 32  2  0  0  0  0
 17 18  1  0  0  0  0
 17 19  1  0  0  0  0
 18 20  1  0  0  0  0
 19 21  1  0  0  0  0
 20 22  1  0  0  0  0
 21 23  1  0  0  0  0
 22 23  1  0  0  0  0
 23 30  1  0  0  0  0
 24 25  1  0  0  0  0
 25 26  1  0  0  0  0
 26 31  1  0  0  0  0
 27 28  1  0  0  0  0
 29 35  1  0  0  0  0
 33 35  2  0  0  0  0
 34 35  2  0  0  0  0
  1 36  1  0  0  0  0
  2 37  1  0  0  0  0
  3 38  1  0  0  0  0
  4 39  1  0  0  0  0
  5 40  1  0  0  0  0
  6 41  1  0  0  0  0
  7 42  1  0  0  0  0
  8 43  1  0  0  0  0
  9 44  1  0  0  0  0
 10 45  1  0  0  0  0
 17 46  1  0  0  0  0
 17 47  1  0  0  0  0
 18 48  1  0  0  0  0
 18 49  1  0  0  0  0
 19 50  1  0  0  0  0
 19 51  1  0  0  0  0
 20 52  1  0  0  0  0
 20 53  1  0  0  0  0
 21 54  1  0  0  0  0
 21 55  1  0  0  0  0
 22 56  1  0  0  0  0
 22 57  1  0  0  0  0
 23 58  1  0  0  0  0
 24 59  1  0  0  0  0
 24 60  1  0  0  0  0
 25 61  1  0  0  0  0
 25 62  1  0  0  0  0
 26 63  1  0  0  0  0
 26 64  1  0  0  0  0
 29 65  1  0  0  0  0
 29 66  1  0  0  0  0
 30 67  1  0  0  0  0
 31 68  1  0  0  0  0
M  END
> <Name>
A_78

> <SourceTag>
A_78

> <Gold.Version>
5.2

> <Gold.Id.Protein>
6HGV|6HGV_protein|mol2

> <Gold.Goldscore.Fitness>
89.8284

> <Gold.Goldscore.Internal.Vdw>
-0.1206

> <Gold.Goldscore.Internal.Torsion>
-11.4032

> <Gold.Goldscore.External.Vdw>
64.6814

> <Gold.Goldscore.Internal.HBond>
0.0000

> <Gold.Goldscore.External.HBond>
5.2343

> <Gold.Goldscore.Internal.Correction>
-7.1809

> <Gold.Goldscore.Hbonds>
donor molecule, donor type, donor heavy atom, donor atom, acceptor molecule, acceptor atom, score
      P1  H  1957  4531       L1    34  0.02
      L1  H    30    67       P1   853  0.10
      L1  H    31    68       P1   853  0.76

> <Gold.Goldscore.Internal.Vdw.Weighted>
-0.1206

> <Gold.Goldscore.Internal.Torsion.Weighted>
-11.4032

> <Gold.Goldscore.External.Vdw.Weighted>
88.9369

> <Gold.Goldscore.Internal.HBond.Weighted>
0.0000

> <Gold.Goldscore.External.HBond.Weighted>
5.2343

> <Gold.Goldscore.Internal.Correction.Weighted>
-7.1809

> <Gold.Protein.RotatedTorsions>
[ 3781 1176 1175 1172 ] final  -81.44 input   60.00 | X-H torsion
[ 3847 1247 1246 1244 ] final   10.41 input   60.00 | X-H torsion
[ 4507 1931 1930 1928 ] final  100.04 input   60.00 | X-H torsion
[ 3677 1070 1069 1066 ] final  -95.53 input   60.00 | X-H torsion
[ 3525  925  924  922 ] final   14.15 input   59.99 | X-H torsion
[ 4531 1957 1955 1953 ] final    2.36 input   60.00 | X-H torsion

> <Gold.Protein.ActiveResidues>
 PHE267  PRO268  MET310  ASP335  TRP336  MET339  TYR343  THR360  PRO361  ILE363 
 PRO371  SER374  ILE375  ASN378  PHE381  TYR383  GLN384  PHE387  LEU408  LEU417 
 MET419  LEU428  TYR466  MET469  ASN472  ASP496  VAL498  LEU499  MET503  HIS524 
 TRP525 

> <Gold.Protein.RotatedAtoms>
   -3.4494  -29.5947  -30.6457 H   0  0  0  0  0  0  0  0  0  0  0  0  # atno 3525 bound_to 925 
  -11.8006  -23.7812  -31.4000 H   0  0  0  0  0  0  0  0  0  0  0  0  # atno 3677 bound_to 1070
   -9.9372  -36.4953  -34.1135 H   0  0  0  0  0  0  0  0  0  0  0  0  # atno 3781 bound_to 1176
  -15.5719  -28.8163  -37.0714 H   0  0  0  0  0  0  0  0  0  0  0  0  # atno 3847 bound_to 1247
  -12.4372  -24.1344  -39.1017 H   0  0  0  0  0  0  0  0  0  0  0  0  # atno 4507 bound_to 1931
   -2.8820  -32.5298  -36.6848 H   0  0  0  0  0  0  0  0  0  0  0  0  # atno 4531 bound_to 1957
   -9.4000  -36.7039  -32.5917 LP  0  0  0  0  0  0  0  0  0  0  0  0  # atno 5205 bound_to 1176
  -10.7742  -37.4366  -33.0832 LP  0  0  0  0  0  0  0  0  0  0  0  0  # atno 5206 bound_to 1176
  -15.6848  -27.2850  -37.6102 LP  0  0  0  0  0  0  0  0  0  0  0  0  # atno 5215 bound_to 1247
  -14.3050  -28.1306  -37.8283 LP  0  0  0  0  0  0  0  0  0  0  0  0  # atno 5216 bound_to 1247
  -13.4553  -25.3821  -39.3360 LP  0  0  0  0  0  0  0  0  0  0  0  0  # atno 5217 bound_to 1931
  -13.3068  -24.2208  -40.4744 LP  0  0  0  0  0  0  0  0  0  0  0  0  # atno 5218 bound_to 1931
  -11.2879  -22.3434  -30.8362 LP  0  0  0  0  0  0  0  0  0  0  0  0  # atno 5224 bound_to 1070
  -12.7666  -22.9034  -30.4282 LP  0  0  0  0  0  0  0  0  0  0  0  0  # atno 5225 bound_to 1070

$$$$
A_100|SEH_inhibs_minimized|sdf|2|dock4
  -GOLD-   41821 8573D 1   1.00000     0.00000

 47 50  0  0  0  0  0  0  0  0  1 V2000
  -17.5949  -22.9441  -39.5119 C   0  0  0  0  0  0  0  0  0  0  0  0
  -18.7833  -23.3985  -38.9402 C   0  0  0  0  0  0  0  0  0  0  0  0
  -16.3696  -23.4176  -39.0427 C   0  0  0  0  0  0  0  0  0  0  0  0
  -17.5210  -24.7995  -37.4299 C   0  0  0  0  0  0  0  0  0  0  0  0
  -18.7464  -24.3261  -37.8992 C   0  0  0  0  0  0  0  0  0  0  0  0
  -16.3326  -24.3452  -38.0017 C   0  0  0  0  0  0  0  0  0  0  0  0
  -19.9861  -24.7990  -37.3041 C   0  0  0  0  0  0  0  0  0  0  0  0
  -14.8030  -25.3643  -36.2691 C   0  0  0  0  0  0  0  0  0  0  0  0
   -9.4914  -27.1412  -34.2086 C   0  0  0  0  0  0  0  0  0  0  0  0
  -11.7121  -28.2839  -33.9882 C   0  0  0  0  0  0  0  0  0  0  0  0
  -11.3746  -25.9891  -33.0202 C   0  0  0  0  0  0  0  0  0  0  0  0
  -10.9498  -27.4502  -36.2242 C   0  0  0  0  0  0  0  0  0  0  0  0
  -10.6130  -25.1598  -35.2581 C   0  0  0  0  0  0  0  0  0  0  0  0
  -10.7069  -27.3502  -33.2893 C   0  0  0  0  0  0  0  0  0  0  0  0
   -9.9399  -26.5137  -35.5398 C   0  0  0  0  0  0  0  0  0  0  0  0
  -12.1793  -27.6602  -35.3180 C   0  0  0  0  0  0  0  0  0  0  0  0
  -11.8403  -25.3554  -34.3457 C   0  0  0  0  0  0  0  0  0  0  0  0
  -12.8588  -26.3070  -35.0119 C   0  0  0  0  0  0  0  0  0  0  0  0
  -21.1964  -24.8727  -38.1892 C   0  0  0  0  0  0  0  0  0  0  0  0
  -15.0900  -24.8253  -37.5262 N   0  0  0  0  0  0  0  0  0  0  0  0
  -13.4528  -25.7223  -36.1910 N   0  0  0  0  0  0  0  0  0  0  0  0
  -20.1199  -25.1394  -36.1267 O   0  0  0  0  0  0  0  0  0  0  0  0
  -15.5928  -25.5188  -35.3406 O   0  0  0  0  0  0  0  0  0  0  0  0
  -17.6235  -22.2221  -40.3228 H   0  0  0  0  0  0  0  0  0  0  0  0
  -19.7320  -23.0217  -39.3135 H   0  0  0  0  0  0  0  0  0  0  0  0
  -15.4494  -23.0561  -39.4954 H   0  0  0  0  0  0  0  0  0  0  0  0
  -17.4922  -25.5224  -36.6171 H   0  0  0  0  0  0  0  0  0  0  0  0
   -8.7568  -26.4917  -33.7170 H   0  0  0  0  0  0  0  0  0  0  0  0
   -8.9936  -28.1007  -34.3954 H   0  0  0  0  0  0  0  0  0  0  0  0
  -11.2481  -29.2604  -34.1751 H   0  0  0  0  0  0  0  0  0  0  0  0
  -12.5746  -28.4621  -33.3343 H   0  0  0  0  0  0  0  0  0  0  0  0
  -12.2300  -26.1190  -32.3458 H   0  0  0  0  0  0  0  0  0  0  0  0
  -10.6687  -25.3199  -32.5127 H   0  0  0  0  0  0  0  0  0  0  0  0
  -11.2552  -27.0309  -37.1904 H   0  0  0  0  0  0  0  0  0  0  0  0
  -10.4765  -28.4168  -36.4375 H   0  0  0  0  0  0  0  0  0  0  0  0
   -9.8974  -24.4809  -34.7773 H   0  0  0  0  0  0  0  0  0  0  0  0
  -10.9097  -24.6852  -36.2011 H   0  0  0  0  0  0  0  0  0  0  0  0
  -10.3822  -27.7977  -32.3434 H   0  0  0  0  0  0  0  0  0  0  0  0
   -9.0705  -26.3673  -36.1904 H   0  0  0  0  0  0  0  0  0  0  0  0
  -12.8856  -28.3370  -35.8133 H   0  0  0  0  0  0  0  0  0  0  0  0
  -12.3039  -24.3822  -34.1454 H   0  0  0  0  0  0  0  0  0  0  0  0
  -13.6984  -26.4730  -34.3252 H   0  0  0  0  0  0  0  0  0  0  0  0
  -20.9817  -25.2224  -39.2114 H   0  0  0  0  0  0  0  0  0  0  0  0
  -21.7303  -23.9135  -38.2735 H   0  0  0  0  0  0  0  0  0  0  0  0
  -21.9604  -25.5823  -37.8243 H   0  0  0  0  0  0  0  0  0  0  0  0
  -14.3151  -24.7699  -38.1823 H   0  0  0  0  0  0  0  0  0  0  0  0
  -12.8625  -25.5634  -37.0020 H   0  0  0  0  0  0  0  0  0  0  0  0
  1  2  1  0  0  0  0
  1  3  2  0  0  0  0
  2  5  2  0  0  0  0
  3  6  1  0  0  0  0
  4  5  1  0  0  0  0
  4  6  2  0  0  0  0
  5  7  1  0  0  0  0
  6 20  1  0  0  0  0
  7 19  1  0  0  0  0
  7 22  2  0  0  0  0
  8 20  1  0  0  0  0
  8 21  1  0  0  0  0
  8 23  2  0  0  0  0
  9 14  1  0  0  0  0
  9 15  1  0  0  0  0
 10 14  1  0  0  0  0
 10 16  1  0  0  0  0
 11 14  1  0  0  0  0
 11 17  1  0  0  0  0
 12 15  1  0  0  0  0
 12 16  1  0  0  0  0
 13 15  1  0  0  0  0
 13 17  1  0  0  0  0
 16 18  1  0  0  0  0
 17 18  1  0  0  0  0
 18 21  1  0  0  0  0
  1 24  1  0  0  0  0
  2 25  1  0  0  0  0
  3 26  1  0  0  0  0
  4 27  1  0  0  0  0
  9 28  1  0  0  0  0
  9 29  1  0  0  0  0
 10 30  1  0  0  0  0
 10 31  1  0  0  0  0
 11 32  1  0  0  0  0
 11 33  1  0  0  0  0
 12 34  1  0  0  0  0
 12 35  1  0  0  0  0
 13 36  1  0  0  0  0
 13 37  1  0  0  0  0
 14 38  1  0  0  0  0
 15 39  1  0  0  0  0
 16 40  1  0  0  0  0
 17 41  1  0  0  0  0
 18 42  1  0  0  0  0
 19 43  1  0  0  0  0
 19 44  1  0  0  0  0
 19 45  1  0  0  0  0
 20 46  1  0  0  0  0
 21 47  1  0  0  0  0
M  END
> <Name>
A_100

> <SourceTag>
A_100

> <Gold.Version>
5.2

> <Gold.Id.Protein>
6HGV|6HGV_protein|mol2

> <Gold.Goldscore.Fitness>
58.0593

> <Gold.Goldscore.Internal.Vdw>
-3.7722

> <Gold.Goldscore.Internal.Torsion>
-4.1510

> <Gold.Goldscore.External.Vdw>
42.0604

> <Gold.Goldscore.Internal.HBond>
0.0000

> <Gold.Goldscore.External.HBond>
2.0544

> <Gold.Goldscore.Internal.Correction>
-6.0951

> <Gold.Goldscore.Hbonds>
donor molecule, donor type, donor heavy atom, donor atom, acceptor molecule, acceptor atom, score
      L1  H    20    46       P1  1931  1.00
      L1  H    21    47       P1  1931  0.03

> <Gold.Goldscore.Internal.Vdw.Weighted>
-3.7722

> <Gold.Goldscore.Internal.Torsion.Weighted>
-4.1510

> <Gold.Goldscore.External.Vdw.Weighted>
57.8330

> <Gold.Goldscore.Internal.HBond.Weighted>
0.0000

> <Gold.Goldscore.External.HBond.Weighted>
2.0544

> <Gold.Goldscore.Internal.Correction.Weighted>
-6.0951

> <Gold.Protein.RotatedTorsions>
[ 3781 1176 1175 1172 ] final   66.08 input   60.00 | X-H torsion
[ 3847 1247 1246 1244 ] final  148.72 input   60.00 | X-H torsion
[ 4507 1931 1930 1928 ] final  154.92 input   60.00 | X-H torsion
[ 3677 1070 1069 1066 ] final  -55.34 input   60.00 | X-H torsion
[ 3525  925  924  922 ] final  168.51 input   59.99 | X-H torsion
[ 4531 1957 1955 1953 ] final  111.29 input   60.00 | X-H torsion

> <Gold.Protein.ActiveResidues>
 PHE267  PRO268  MET310  ASP335  TRP336  MET339  TYR343  THR360  PRO361  ILE363 
 PRO371  SER374  ILE375  ASN378  PHE381  TYR383  GLN384  PHE387  LEU408  LEU417 
 MET419  LEU428  TYR466  MET469  ASN472  ASP496  VAL498  LEU499  MET503  HIS524 
 TRP525 

> <Gold.Protein.RotatedAtoms>
   -2.1404  -30.2644  -29.5633 H   0  0  0  0  0  0  0  0  0  0  0  0  # atno 3525 bound_to 925 
  -12.3831  -23.8068  -31.1282 H   0  0  0  0  0  0  0  0  0  0  0  0  # atno 3677 bound_to 1070
  -10.5425  -37.4282  -32.7010 H   0  0  0  0  0  0  0  0  0  0  0  0  # atno 3781 bound_to 1176
  -14.3764  -27.8519  -37.9096 H   0  0  0  0  0  0  0  0  0  0  0  0  # atno 3847 bound_to 1247
  -12.6336  -23.7786  -39.8627 H   0  0  0  0  0  0  0  0  0  0  0  0  # atno 4507 bound_to 1931
   -2.5124  -34.0050  -36.7805 H   0  0  0  0  0  0  0  0  0  0  0  0  # atno 4531 bound_to 1957
  -10.3156  -36.7299  -34.1532 LP  0  0  0  0  0  0  0  0  0  0  0  0  # atno 5205 bound_to 1176
   -9.2490  -36.4711  -32.9441 LP  0  0  0  0  0  0  0  0  0  0  0  0  # atno 5206 bound_to 1176
  -15.3040  -28.9365  -37.1279 LP  0  0  0  0  0  0  0  0  0  0  0  0  # atno 5215 bound_to 1247
  -15.8898  -27.4503  -37.4665 LP  0  0  0  0  0  0  0  0  0  0  0  0  # atno 5216 bound_to 1247
  -12.8779  -24.9976  -38.8128 LP  0  0  0  0  0  0  0  0  0  0  0  0  # atno 5217 bound_to 1931
  -13.6863  -24.9635  -40.2312 LP  0  0  0  0  0  0  0  0  0  0  0  0  # atno 5218 bound_to 1931
  -11.0847  -22.8296  -31.2130 LP  0  0  0  0  0  0  0  0  0  0  0  0  # atno 5224 bound_to 1070
  -12.3833  -22.3915  -30.3251 LP  0  0  0  0  0  0  0  0  0  0  0  0  # atno 5225 bound_to 1070

$$$$
A_2|SEH_inhibs_minimized|sdf|19|dock10
  -GOLD-   41821 9333D 1   1.00000     0.00000

 82 85  0  0  0  0  0  0  0  0  1 V2000
  -26.4689  -26.5328  -36.9257 C   0  0  0  0  0  0  0  0  0  0  0  0
  -25.2818  -27.0362  -37.4577 C   0  0  0  0  0  0  0  0  0  0  0  0
  -26.4289  -25.5340  -35.9526 C   0  0  0  0  0  0  0  0  0  0  0  0
  -24.0547  -26.5406  -37.0167 C   0  0  0  0  0  0  0  0  0  0  0  0
  -25.2018  -25.0386  -35.5119 C   0  0  0  0  0  0  0  0  0  0  0  0
  -24.0147  -25.5418  -36.0439 C   0  0  0  0  0  0  0  0  0  0  0  0
  -21.6807  -23.7106  -37.8850 C   0  0  0  0  0  0  0  0  0  0  0  0
   -7.8647  -29.6589  -34.0788 C   0  0  0  0  0  0  0  0  0  0  0  0
   -4.8505  -32.6869  -31.9059 C   0  0  0  0  0  0  0  0  0  0  0  0
   -2.9930  -31.4622  -33.0632 C   0  0  0  0  0  0  0  0  0  0  0  0
   -4.1150  -33.3981  -34.1957 C   0  0  0  0  0  0  0  0  0  0  0  0
   -5.2202  -30.3541  -32.7480 C   0  0  0  0  0  0  0  0  0  0  0  0
   -6.3432  -32.2921  -33.8815 C   0  0  0  0  0  0  0  0  0  0  0  0
   -4.4829  -31.0661  -35.0412 C   0  0  0  0  0  0  0  0  0  0  0  0
   -4.1953  -31.3113  -32.1156 C   0  0  0  0  0  0  0  0  0  0  0  0
   -5.3229  -33.2573  -33.2538 C   0  0  0  0  0  0  0  0  0  0  0  0
   -3.4555  -32.0263  -34.4174 C   0  0  0  0  0  0  0  0  0  0  0  0
   -5.7027  -30.9047  -34.1084 C   0  0  0  0  0  0  0  0  0  0  0  0
  -20.8194  -23.8767  -39.1166 C   0  0  0  0  0  0  0  0  0  0  0  0
  -19.3728  -23.4706  -38.8504 C   0  0  0  0  0  0  0  0  0  0  0  0
  -18.6857  -24.3746  -37.8216 C   0  0  0  0  0  0  0  0  0  0  0  0
  -17.1646  -24.2254  -37.8963 C   0  0  0  0  0  0  0  0  0  0  0  0
  -16.4123  -25.1029  -36.8927 C   0  0  0  0  0  0  0  0  0  0  0  0
  -14.8910  -25.1538  -37.0588 C   0  0  0  0  0  0  0  0  0  0  0  0
  -14.1397  -26.0321  -36.0540 C   0  0  0  0  0  0  0  0  0  0  0  0
  -12.6240  -26.0426  -36.2606 C   0  0  0  0  0  0  0  0  0  0  0  0
  -11.8664  -26.7443  -35.1278 C   0  0  0  0  0  0  0  0  0  0  0  0
  -10.4909  -27.3138  -35.4966 C   0  0  0  0  0  0  0  0  0  0  0  0
   -9.8886  -28.2584  -34.4613 C   0  0  0  0  0  0  0  0  0  0  0  0
  -21.6043  -24.8056  -36.9658 N   0  0  0  0  0  0  0  0  0  0  0  0
   -6.6668  -30.0049  -34.6984 N   0  0  0  0  0  0  0  0  0  0  0  0
   -8.6099  -28.7758  -34.8632 N   0  0  0  0  0  0  0  0  0  0  0  0
  -22.3886  -22.7236  -37.7124 O   0  0  0  0  0  0  0  0  0  0  0  0
   -8.2253  -30.0755  -32.9788 O   0  0  0  0  0  0  0  0  0  0  0  0
  -22.6832  -23.5801  -34.9566 O   0  0  0  0  0  0  0  0  0  0  0  0
  -21.8513  -25.9352  -34.6621 O   0  0  0  0  0  0  0  0  0  0  0  0
  -22.4594  -24.9104  -35.4888 S   0  0  0  0  0  0  0  0  0  0  0  0
  -27.4244  -26.9184  -37.2691 H   0  0  0  0  0  0  0  0  0  0  0  0
  -25.3123  -27.8137  -38.2154 H   0  0  0  0  0  0  0  0  0  0  0  0
  -27.3528  -25.1419  -35.5377 H   0  0  0  0  0  0  0  0  0  0  0  0
  -23.1357  -26.9384  -37.4388 H   0  0  0  0  0  0  0  0  0  0  0  0
  -25.1817  -24.2591  -34.7549 H   0  0  0  0  0  0  0  0  0  0  0  0
   -4.1353  -33.3745  -31.4381 H   0  0  0  0  0  0  0  0  0  0  0  0
   -5.7009  -32.5960  -31.2189 H   0  0  0  0  0  0  0  0  0  0  0  0
   -2.5065  -30.4900  -33.2091 H   0  0  0  0  0  0  0  0  0  0  0  0
   -2.2453  -32.1287  -32.6157 H   0  0  0  0  0  0  0  0  0  0  0  0
   -3.3867  -34.0985  -33.7688 H   0  0  0  0  0  0  0  0  0  0  0  0
   -4.4362  -33.8192  -35.1563 H   0  0  0  0  0  0  0  0  0  0  0  0
   -6.0716  -30.2195  -32.0681 H   0  0  0  0  0  0  0  0  0  0  0  0
   -4.7711  -29.3607  -32.8784 H   0  0  0  0  0  0  0  0  0  0  0  0
   -6.7074  -32.7022  -34.8328 H   0  0  0  0  0  0  0  0  0  0  0  0
   -7.2220  -32.2028  -33.2293 H   0  0  0  0  0  0  0  0  0  0  0  0
   -4.0156  -30.0903  -35.2276 H   0  0  0  0  0  0  0  0  0  0  0  0
   -4.8003  -31.4471  -36.0209 H   0  0  0  0  0  0  0  0  0  0  0  0
   -3.8596  -30.9104  -31.1528 H   0  0  0  0  0  0  0  0  0  0  0  0
   -5.7875  -34.2374  -33.0985 H   0  0  0  0  0  0  0  0  0  0  0  0
   -2.5950  -32.1334  -35.0871 H   0  0  0  0  0  0  0  0  0  0  0  0
  -20.8565  -24.9380  -39.3900 H   0  0  0  0  0  0  0  0  0  0  0  0
  -21.2348  -23.3178  -39.9620 H   0  0  0  0  0  0  0  0  0  0  0  0
  -18.7999  -23.4789  -39.7859 H   0  0  0  0  0  0  0  0  0  0  0  0
  -19.3669  -22.4382  -38.4800 H   0  0  0  0  0  0  0  0  0  0  0  0
  -19.0320  -24.1143  -36.8144 H   0  0  0  0  0  0  0  0  0  0  0  0
  -18.9661  -25.4175  -38.0047 H   0  0  0  0  0  0  0  0  0  0  0  0
  -16.8219  -24.4376  -38.9149 H   0  0  0  0  0  0  0  0  0  0  0  0
  -16.8971  -23.1803  -37.6948 H   0  0  0  0  0  0  0  0  0  0  0  0
  -16.6538  -24.7584  -35.8800 H   0  0  0  0  0  0  0  0  0  0  0  0
  -16.7991  -26.1278  -36.9598 H   0  0  0  0  0  0  0  0  0  0  0  0
  -14.6699  -25.5107  -38.0728 H   0  0  0  0  0  0  0  0  0  0  0  0
  -14.4847  -24.1365  -37.0051 H   0  0  0  0  0  0  0  0  0  0  0  0
  -14.3559  -25.6521  -35.0487 H   0  0  0  0  0  0  0  0  0  0  0  0
  -14.5351  -27.0526  -36.0947 H   0  0  0  0  0  0  0  0  0  0  0  0
  -12.2626  -25.0084  -36.3201 H   0  0  0  0  0  0  0  0  0  0  0  0
  -12.3722  -26.5129  -37.2169 H   0  0  0  0  0  0  0  0  0  0  0  0
  -11.7545  -26.0379  -34.2961 H   0  0  0  0  0  0  0  0  0  0  0  0
  -12.4856  -27.5658  -34.7457 H   0  0  0  0  0  0  0  0  0  0  0  0
   -9.7890  -26.4920  -35.6781 H   0  0  0  0  0  0  0  0  0  0  0  0
  -10.5905  -27.8465  -36.4512 H   0  0  0  0  0  0  0  0  0  0  0  0
   -9.7336  -27.7250  -33.5179 H   0  0  0  0  0  0  0  0  0  0  0  0
  -10.5461  -29.1079  -34.2582 H   0  0  0  0  0  0  0  0  0  0  0  0
  -20.9924  -25.5983  -37.1985 H   0  0  0  0  0  0  0  0  0  0  0  0
   -6.4609  -29.6056  -35.6088 H   0  0  0  0  0  0  0  0  0  0  0  0
   -8.2050  -28.4521  -35.7400 H   0  0  0  0  0  0  0  0  0  0  0  0
  1  2  2  0  0  0  0
  1  3  1  0  0  0  0
  2  4  1  0  0  0  0
  3  5  2  0  0  0  0
  4  6  2  0  0  0  0
  5  6  1  0  0  0  0
  6 37  1  0  0  0  0
  7 19  1  0  0  0  0
  7 30  1  0  0  0  0
  7 33  2  0  0  0  0
  8 31  1  0  0  0  0
  8 32  1  0  0  0  0
  8 34  2  0  0  0  0
  9 15  1  0  0  0  0
  9 16  1  0  0  0  0
 10 15  1  0  0  0  0
 10 17  1  0  0  0  0
 11 16  1  0  0  0  0
 11 17  1  0  0  0  0
 12 15  1  0  0  0  0
 12 18  1  0  0  0  0
 13 16  1  0  0  0  0
 13 18  1  0  0  0  0
 14 17  1  0  0  0  0
 14 18  1  0  0  0  0
 18 31  1  0  0  0  0
 19 20  1  0  0  0  0
 20 21  1  0  0  0  0
 21 22  1  0  0  0  0
 22 23  1  0  0  0  0
 23 24  1  0  0  0  0
 24 25  1  0  0  0  0
 25 26  1  0  0  0  0
 26 27  1  0  0  0  0
 27 28  1  0  0  0  0
 28 29  1  0  0  0  0
 29 32  1  0  0  0  0
 30 37  1  0  0  0  0
 35 37  2  0  0  0  0
 36 37  2  0  0  0  0
  1 38  1  0  0  0  0
  2 39  1  0  0  0  0
  3 40  1  0  0  0  0
  4 41  1  0  0  0  0
  5 42  1  0  0  0  0
  9 43  1  0  0  0  0
  9 44  1  0  0  0  0
 10 45  1  0  0  0  0
 10 46  1  0  0  0  0
 11 47  1  0  0  0  0
 11 48  1  0  0  0  0
 12 49  1  0  0  0  0
 12 50  1  0  0  0  0
 13 51  1  0  0  0  0
 13 52  1  0  0  0  0
 14 53  1  0  0  0  0
 14 54  1  0  0  0  0
 15 55  1  0  0  0  0
 16 56  1  0  0  0  0
 17 57  1  0  0  0  0
 19 58  1  0  0  0  0
 19 59  1  0  0  0  0
 20 60  1  0  0  0  0
 20 61  1  0  0  0  0
 21 62  1  0  0  0  0
 21 63  1  0  0  0  0
 22 64  1  0  0  0  0
 22 65  1  0  0  0  0
 23 66  1  0  0  0  0
 23 67  1  0  0  0  0
 24 68  1  0  0  0  0
 24 69  1  0  0  0  0
 25 70  1  0  0  0  0
 25 71  1  0  0  0  0
 26 72  1  0  0  0  0
 26 73  1  0  0  0  0
 27 74  1  0  0  0  0
 27 75  1  0  0  0  0
 28 76  1  0  0  0  0
 28 77  1  0  0  0  0
 29 78  1  0  0  0  0
 29 79  1  0  0  0  0
 30 80  1  0  0  0  0
 31 81  1  0  0  0  0
 32 82  1  0  0  0  0
M  END
> <Name>
A_2

> <SourceTag>
A_2

> <Gold.Version>
5.2

> <Gold.Id.Protein>
6HGV|6HGV_protein|mol2

> <Gold.Goldscore.Fitness>
91.3548

> <Gold.Goldscore.Internal.Vdw>
-4.5349

> <Gold.Goldscore.Internal.Torsion>
-7.9484

> <Gold.Goldscore.External.Vdw>
69.4962

> <Gold.Goldscore.Internal.HBond>
0.0000

> <Gold.Goldscore.External.HBond>
0.0000

> <Gold.Goldscore.Internal.Correction>
-8.2809

> <Gold.Goldscore.Internal.Vdw.Weighted>
-4.5349

> <Gold.Goldscore.Internal.Torsion.Weighted>
-7.9484

> <Gold.Goldscore.External.Vdw.Weighted>
95.5572

> <Gold.Goldscore.Internal.HBond.Weighted>
0.0000

> <Gold.Goldscore.External.HBond.Weighted>
0.0000

> <Gold.Goldscore.Internal.Correction.Weighted>
-8.2809

> <Gold.Protein.RotatedTorsions>
[ 3781 1176 1175 1172 ] final  121.33 input   60.00 | X-H torsion
[ 3847 1247 1246 1244 ] final   91.29 input   60.00 | X-H torsion
[ 4507 1931 1930 1928 ] final  121.51 input   60.00 | X-H torsion
[ 3677 1070 1069 1066 ] final  -63.08 input   60.00 | X-H torsion
[ 3525  925  924  922 ] final  135.80 input   59.99 | X-H torsion
[ 4531 1957 1955 1953 ] final  111.90 input   60.00 | X-H torsion

> <Gold.Protein.ActiveResidues>
 PHE267  PRO268  MET310  ASP335  TRP336  MET339  TYR343  THR360  PRO361  ILE363 
 PRO371  SER374  ILE375  ASN378  PHE381  TYR383  GLN384  PHE387  LEU408  LEU417 
 MET419  LEU428  TYR466  MET469  ASN472  ASP496  VAL498  LEU499  MET503  HIS524 
 TRP525 

> <Gold.Protein.RotatedAtoms>
   -2.0612  -30.2513  -30.0844 H   0  0  0  0  0  0  0  0  0  0  0  0  # atno 3525 bound_to 925 
  -12.2789  -23.8334  -31.1946 H   0  0  0  0  0  0  0  0  0  0  0  0  # atno 3677 bound_to 1070
   -9.8222  -37.0701  -32.3741 H   0  0  0  0  0  0  0  0  0  0  0  0  # atno 3781 bound_to 1176
  -14.4684  -28.6750  -37.5586 H   0  0  0  0  0  0  0  0  0  0  0  0  # atno 3847 bound_to 1247
  -12.4495  -23.9216  -39.3777 H   0  0  0  0  0  0  0  0  0  0  0  0  # atno 4507 bound_to 1931
   -2.5032  -34.0085  -36.7823 H   0  0  0  0  0  0  0  0  0  0  0  0  # atno 4531 bound_to 1957
  -10.8119  -37.2481  -33.6535 LP  0  0  0  0  0  0  0  0  0  0  0  0  # atno 5205 bound_to 1176
   -9.4781  -36.3135  -33.7730 LP  0  0  0  0  0  0  0  0  0  0  0  0  # atno 5206 bound_to 1176
  -15.9899  -28.3463  -37.0844 LP  0  0  0  0  0  0  0  0  0  0  0  0  # atno 5215 bound_to 1247
  -15.1112  -27.2115  -37.8634 LP  0  0  0  0  0  0  0  0  0  0  0  0  # atno 5216 bound_to 1247
  -13.2439  -25.3071  -39.0657 LP  0  0  0  0  0  0  0  0  0  0  0  0  # atno 5217 bound_to 1931
  -13.5057  -24.5101  -40.4667 LP  0  0  0  0  0  0  0  0  0  0  0  0  # atno 5218 bound_to 1931
  -11.0923  -22.7208  -31.1473 LP  0  0  0  0  0  0  0  0  0  0  0  0  # atno 5224 bound_to 1070
  -12.4806  -22.4735  -30.3239 LP  0  0  0  0  0  0  0  0  0  0  0  0  # atno 5225 bound_to 1070

$$$$
A_38|SEH_inhibs_minimized|sdf|28|dock4
  -GOLD-   41821 9483D 1   1.00000     0.00000

 52 54  0  0  0  0  0  0  0  0  1 V2000
  -14.7558  -24.2977  -38.0400 C   0  0  0  0  0  0  0  0  0  0  0  0
  -16.2280  -25.8357  -36.8979 C   0  0  0  0  0  0  0  0  0  0  0  0
   -8.9192  -32.1585  -33.3739 C   0  0  0  0  0  0  0  0  0  0  0  0
  -13.7846  -24.4990  -37.0593 C   0  0  0  0  0  0  0  0  0  0  0  0
  -15.2568  -26.0371  -35.9172 C   0  0  0  0  0  0  0  0  0  0  0  0
   -9.5210  -32.8129  -32.2991 C   0  0  0  0  0  0  0  0  0  0  0  0
  -11.3888  -33.4122  -33.7096 C   0  0  0  0  0  0  0  0  0  0  0  0
  -15.9775  -24.9662  -37.9594 C   0  0  0  0  0  0  0  0  0  0  0  0
   -9.5524  -32.1306  -34.6165 C   0  0  0  0  0  0  0  0  0  0  0  0
  -14.0352  -25.3688  -35.9980 C   0  0  0  0  0  0  0  0  0  0  0  0
  -10.7558  -33.4399  -32.4670 C   0  0  0  0  0  0  0  0  0  0  0  0
  -10.7872  -32.7576  -34.7844 C   0  0  0  0  0  0  0  0  0  0  0  0
  -16.9889  -24.7581  -38.9834 C   0  0  0  0  0  0  0  0  0  0  0  0
   -8.9577  -28.9762  -35.3076 C   0  0  0  0  0  0  0  0  0  0  0  0
  -10.8830  -26.1642  -34.2743 C   0  0  0  0  0  0  0  0  0  0  0  0
  -11.7991  -27.0457  -36.4529 C   0  0  0  0  0  0  0  0  0  0  0  0
   -9.4947  -26.6338  -34.7006 C   0  0  0  0  0  0  0  0  0  0  0  0
  -10.3877  -27.4823  -36.8329 C   0  0  0  0  0  0  0  0  0  0  0  0
  -11.7647  -25.8587  -35.4866 C   0  0  0  0  0  0  0  0  0  0  0  0
  -17.4387  -24.5754  -41.4429 C   0  0  0  0  0  0  0  0  0  0  0  0
   -8.8710  -31.4166  -35.7480 C   0  0  0  0  0  0  0  0  0  0  0  0
   -9.6001  -27.7680  -35.6238 N   0  0  0  0  0  0  0  0  0  0  0  0
  -16.5598  -24.7876  -40.3154 N   0  0  0  0  0  0  0  0  0  0  0  0
   -9.4290  -30.1015  -35.9724 N   0  0  0  0  0  0  0  0  0  0  0  0
  -18.1727  -24.5444  -38.6672 O   0  0  0  0  0  0  0  0  0  0  0  0
   -8.0346  -29.0476  -34.4892 O   0  0  0  0  0  0  0  0  0  0  0  0
  -13.0814  -25.5666  -35.0344 O   0  0  0  0  0  0  0  0  0  0  0  0
  -11.4975  -34.2469  -31.1403 Cl  0  0  0  0  0  0  0  0  0  0  0  0
  -11.6002  -32.7442  -36.3073 Cl  0  0  0  0  0  0  0  0  0  0  0  0
  -14.5499  -23.6183  -38.8632 H   0  0  0  0  0  0  0  0  0  0  0  0
  -17.1763  -26.3621  -36.8259 H   0  0  0  0  0  0  0  0  0  0  0  0
   -7.9570  -31.6733  -33.2324 H   0  0  0  0  0  0  0  0  0  0  0  0
  -12.8351  -23.9749  -37.1281 H   0  0  0  0  0  0  0  0  0  0  0  0
  -15.4582  -26.7169  -35.0938 H   0  0  0  0  0  0  0  0  0  0  0  0
   -9.0159  -32.8266  -31.3366 H   0  0  0  0  0  0  0  0  0  0  0  0
  -12.3515  -33.9023  -33.8392 H   0  0  0  0  0  0  0  0  0  0  0  0
  -11.3643  -26.9365  -33.6597 H   0  0  0  0  0  0  0  0  0  0  0  0
  -10.8047  -25.2765  -33.6357 H   0  0  0  0  0  0  0  0  0  0  0  0
  -12.3685  -26.7787  -37.3508 H   0  0  0  0  0  0  0  0  0  0  0  0
  -12.3381  -27.8818  -35.9884 H   0  0  0  0  0  0  0  0  0  0  0  0
   -8.9579  -25.8319  -35.2209 H   0  0  0  0  0  0  0  0  0  0  0  0
   -8.9098  -26.8998  -33.8148 H   0  0  0  0  0  0  0  0  0  0  0  0
  -10.4292  -28.3243  -37.5232 H   0  0  0  0  0  0  0  0  0  0  0  0
   -9.8736  -26.6720  -37.3649 H   0  0  0  0  0  0  0  0  0  0  0  0
  -11.3811  -24.9698  -36.0016 H   0  0  0  0  0  0  0  0  0  0  0  0
  -18.4714  -24.5798  -41.0883 H   0  0  0  0  0  0  0  0  0  0  0  0
  -17.2850  -25.3799  -42.1653 H   0  0  0  0  0  0  0  0  0  0  0  0
  -17.2009  -23.6120  -41.8986 H   0  0  0  0  0  0  0  0  0  0  0  0
   -7.8016  -31.2985  -35.5418 H   0  0  0  0  0  0  0  0  0  0  0  0
   -8.9618  -31.9823  -36.6811 H   0  0  0  0  0  0  0  0  0  0  0  0
  -15.5719  -24.9035  -40.5157 H   0  0  0  0  0  0  0  0  0  0  0  0
  -10.1864  -29.9976  -36.6343 H   0  0  0  0  0  0  0  0  0  0  0  0
  1  4  1  0  0  0  0
  1  8  2  0  0  0  0
  2  5  2  0  0  0  0
  2  8  1  0  0  0  0
  3  6  1  0  0  0  0
  3  9  2  0  0  0  0
  4 10  2  0  0  0  0
  5 10  1  0  0  0  0
  6 11  2  0  0  0  0
  7 11  1  0  0  0  0
  7 12  2  0  0  0  0
  8 13  1  0  0  0  0
  9 12  1  0  0  0  0
  9 21  1  0  0  0  0
 10 27  1  0  0  0  0
 11 28  1  0  0  0  0
 12 29  1  0  0  0  0
 13 23  1  0  0  0  0
 13 25  2  0  0  0  0
 14 22  1  0  0  0  0
 14 24  1  0  0  0  0
 14 26  2  0  0  0  0
 15 17  1  0  0  0  0
 15 19  1  0  0  0  0
 16 18  1  0  0  0  0
 16 19  1  0  0  0  0
 17 22  1  0  0  0  0
 18 22  1  0  0  0  0
 19 27  1  0  0  0  0
 20 23  1  0  0  0  0
 21 24  1  0  0  0  0
  1 30  1  0  0  0  0
  2 31  1  0  0  0  0
  3 32  1  0  0  0  0
  4 33  1  0  0  0  0
  5 34  1  0  0  0  0
  6 35  1  0  0  0  0
  7 36  1  0  0  0  0
 15 37  1  0  0  0  0
 15 38  1  0  0  0  0
 16 39  1  0  0  0  0
 16 40  1  0  0  0  0
 17 41  1  0  0  0  0
 17 42  1  0  0  0  0
 18 43  1  0  0  0  0
 18 44  1  0  0  0  0
 19 45  1  0  0  0  0
 20 46  1  0  0  0  0
 20 47  1  0  0  0  0
 20 48  1  0  0  0  0
 21 49  1  0  0  0  0
 21 50  1  0  0  0  0
 23 51  1  0  0  0  0
 24 52  1  0  0  0  0
M  END
> <Name>
A_38

> <SourceTag>
A_38

> <Gold.Version>
5.2

> <Gold.Id.Protein>
6HGV|6HGV_protein|mol2

> <Gold.Goldscore.Fitness>
62.7056

> <Gold.Goldscore.Internal.Vdw>
-11.8208

> <Gold.Goldscore.Internal.Torsion>
-9.3487

> <Gold.Goldscore.External.Vdw>
48.2768

> <Gold.Goldscore.Internal.HBond>
0.0000

> <Gold.Goldscore.External.HBond>
0.1393

> <Gold.Goldscore.Internal.Correction>
-17.3552

> <Gold.Goldscore.Hbonds>
donor molecule, donor type, donor heavy atom, donor atom, acceptor molecule, acceptor atom, score
      L1  H    23    51       P1  1931  0.06
      L1  H    24    52       P1  1255  0.01

> <Gold.Goldscore.Internal.Vdw.Weighted>
-11.8208

> <Gold.Goldscore.Internal.Torsion.Weighted>
-9.3487

> <Gold.Goldscore.External.Vdw.Weighted>
66.3806

> <Gold.Goldscore.Internal.HBond.Weighted>
0.0000

> <Gold.Goldscore.External.HBond.Weighted>
0.1393

> <Gold.Goldscore.Internal.Correction.Weighted>
-17.3552

> <Gold.Protein.RotatedTorsions>
[ 3781 1176 1175 1172 ] final  -88.13 input   60.00 | X-H torsion
[ 3847 1247 1246 1244 ] final   -0.45 input   60.00 | X-H torsion
[ 4507 1931 1930 1928 ] final -164.40 input   60.00 | X-H torsion
[ 3677 1070 1069 1066 ] final -127.64 input   60.00 | X-H torsion
[ 3525  925  924  922 ] final -151.00 input   59.99 | X-H torsion
[ 4531 1957 1955 1953 ] final   29.62 input   60.00 | X-H torsion

> <Gold.Protein.ActiveResidues>
 PHE267  PRO268  MET310  ASP335  TRP336  MET339  TYR343  THR360  PRO361  ILE363 
 PRO371  SER374  ILE375  ASN378  PHE381  TYR383  GLN384  PHE387  LEU408  LEU417 
 MET419  LEU428  TYR466  MET469  ASN472  ASP496  VAL498  LEU499  MET503  HIS524 
 TRP525 

> <Gold.Protein.RotatedAtoms>
   -2.5681  -30.1205  -29.0984 H   0  0  0  0  0  0  0  0  0  0  0  0  # atno 3525 bound_to 925 
  -11.3729  -23.4929  -31.4461 H   0  0  0  0  0  0  0  0  0  0  0  0  # atno 3677 bound_to 1070
   -9.8461  -36.4490  -34.0749 H   0  0  0  0  0  0  0  0  0  0  0  0  # atno 3781 bound_to 1176
  -15.7140  -28.7118  -37.0556 H   0  0  0  0  0  0  0  0  0  0  0  0  # atno 3847 bound_to 1247
  -13.0397  -23.9593  -40.3382 H   0  0  0  0  0  0  0  0  0  0  0  0  # atno 4507 bound_to 1931
   -3.0757  -32.9251  -36.6548 H   0  0  0  0  0  0  0  0  0  0  0  0  # atno 4531 bound_to 1957
   -9.4606  -36.7687  -32.5266 LP  0  0  0  0  0  0  0  0  0  0  0  0  # atno 5205 bound_to 1176
  -10.8053  -37.4184  -33.1871 LP  0  0  0  0  0  0  0  0  0  0  0  0  # atno 5206 bound_to 1176
  -15.5380  -27.2242  -37.6911 LP  0  0  0  0  0  0  0  0  0  0  0  0  # atno 5215 bound_to 1247
  -14.3087  -28.2967  -37.7633 LP  0  0  0  0  0  0  0  0  0  0  0  0  # atno 5216 bound_to 1247
  -12.5265  -24.4476  -38.8732 LP  0  0  0  0  0  0  0  0  0  0  0  0  # atno 5217 bound_to 1931
  -13.6287  -25.3316  -39.6919 LP  0  0  0  0  0  0  0  0  0  0  0  0  # atno 5218 bound_to 1931
  -11.6859  -22.1748  -30.5445 LP  0  0  0  0  0  0  0  0  0  0  0  0  # atno 5224 bound_to 1070
  -12.7992  -23.3625  -30.6735 LP  0  0  0  0  0  0  0  0  0  0  0  0  # atno 5225 bound_to 1070

$$$$
A_78|SEH_inhibs_minimized|sdf|47|dock1
  -GOLD-   4182110313D 1   1.00000     0.00000

 68 71  0  0  0  0  0  0  0  0  1 V2000
  -10.4829  -34.2016  -34.9313 C   0  0  0  0  0  0  0  0  0  0  0  0
   -9.3856  -33.6715  -35.6100 C   0  0  0  0  0  0  0  0  0  0  0  0
  -11.3011  -33.3676  -34.1692 C   0  0  0  0  0  0  0  0  0  0  0  0
   -9.1065  -32.3073  -35.5264 C   0  0  0  0  0  0  0  0  0  0  0  0
  -11.0219  -32.0035  -34.0857 C   0  0  0  0  0  0  0  0  0  0  0  0
   -6.0394  -29.8596  -34.8051 C   0  0  0  0  0  0  0  0  0  0  0  0
   -7.2354  -31.3590  -33.3359 C   0  0  0  0  0  0  0  0  0  0  0  0
   -4.8630  -30.5732  -34.5760 C   0  0  0  0  0  0  0  0  0  0  0  0
   -6.0591  -32.0726  -33.1066 C   0  0  0  0  0  0  0  0  0  0  0  0
  -10.4744  -28.9836  -34.8303 C   0  0  0  0  0  0  0  0  0  0  0  0
   -9.9247  -31.4734  -34.7643 C   0  0  0  0  0  0  0  0  0  0  0  0
   -7.2256  -30.2525  -34.1851 C   0  0  0  0  0  0  0  0  0  0  0  0
   -4.8730  -31.6798  -33.7267 C   0  0  0  0  0  0  0  0  0  0  0  0
   -9.6352  -30.0602  -34.6780 C   0  0  0  0  0  0  0  0  0  0  0  0
   -9.6459  -27.8617  -34.6385 C   0  0  0  0  0  0  0  0  0  0  0  0
  -13.8766  -25.0137  -36.7550 C   0  0  0  0  0  0  0  0  0  0  0  0
  -18.3301  -23.3655  -39.8283 C   0  0  0  0  0  0  0  0  0  0  0  0
  -18.8518  -23.3995  -38.3958 C   0  0  0  0  0  0  0  0  0  0  0  0
  -16.8102  -23.4300  -39.9721 C   0  0  0  0  0  0  0  0  0  0  0  0
  -18.3906  -24.5928  -37.5607 C   0  0  0  0  0  0  0  0  0  0  0  0
  -16.2455  -24.8133  -39.6519 C   0  0  0  0  0  0  0  0  0  0  0  0
  -16.9222  -24.4947  -37.1559 C   0  0  0  0  0  0  0  0  0  0  0  0
  -15.9270  -25.0605  -38.1740 C   0  0  0  0  0  0  0  0  0  0  0  0
  -10.0420  -26.4078  -34.6925 C   0  0  0  0  0  0  0  0  0  0  0  0
  -11.2614  -26.1291  -35.5815 C   0  0  0  0  0  0  0  0  0  0  0  0
  -11.6746  -24.6600  -35.6460 C   0  0  0  0  0  0  0  0  0  0  0  0
   -8.3779  -28.1947  -34.3835 N   0  0  0  0  0  0  0  0  0  0  0  0
   -8.4030  -29.5380  -34.4141 N   0  0  0  0  0  0  0  0  0  0  0  0
   -3.9623  -34.1808  -33.5804 N   0  0  0  0  0  0  0  0  0  0  0  0
  -14.5949  -24.5832  -37.8634 N   0  0  0  0  0  0  0  0  0  0  0  0
  -12.6295  -24.3967  -36.6967 N   0  0  0  0  0  0  0  0  0  0  0  0
  -14.2844  -25.8319  -35.9316 O   0  0  0  0  0  0  0  0  0  0  0  0
   -2.4774  -32.3019  -34.5337 O   0  0  0  0  0  0  0  0  0  0  0  0
   -2.9803  -32.3426  -32.0653 O   0  0  0  0  0  0  0  0  0  0  0  0
   -3.4005  -32.5732  -33.4404 S   0  0  0  0  0  0  0  0  0  0  0  0
  -10.7005  -35.2637  -34.9962 H   0  0  0  0  0  0  0  0  0  0  0  0
   -8.7488  -34.3208  -36.2037 H   0  0  0  0  0  0  0  0  0  0  0  0
  -12.1552  -33.7807  -33.6405 H   0  0  0  0  0  0  0  0  0  0  0  0
   -8.2476  -31.9093  -36.0617 H   0  0  0  0  0  0  0  0  0  0  0  0
  -11.6688  -31.3666  -33.4872 H   0  0  0  0  0  0  0  0  0  0  0  0
   -6.0177  -28.9990  -35.4694 H   0  0  0  0  0  0  0  0  0  0  0  0
   -8.1528  -31.6762  -32.8461 H   0  0  0  0  0  0  0  0  0  0  0  0
   -3.9445  -30.2584  -35.0639 H   0  0  0  0  0  0  0  0  0  0  0  0
   -6.0778  -32.9332  -32.4433 H   0  0  0  0  0  0  0  0  0  0  0  0
  -11.5329  -29.0051  -35.0486 H   0  0  0  0  0  0  0  0  0  0  0  0
  -18.7888  -24.1815  -40.4007 H   0  0  0  0  0  0  0  0  0  0  0  0
  -18.6812  -22.4355  -40.2931 H   0  0  0  0  0  0  0  0  0  0  0  0
  -18.5778  -22.4662  -37.8881 H   0  0  0  0  0  0  0  0  0  0  0  0
  -19.9483  -23.4107  -38.4371 H   0  0  0  0  0  0  0  0  0  0  0  0
  -16.5747  -23.2079  -41.0210 H   0  0  0  0  0  0  0  0  0  0  0  0
  -16.3252  -22.6504  -39.3737 H   0  0  0  0  0  0  0  0  0  0  0  0
  -18.9903  -24.5970  -36.6415 H   0  0  0  0  0  0  0  0  0  0  0  0
  -18.6013  -25.5386  -38.0723 H   0  0  0  0  0  0  0  0  0  0  0  0
  -16.9503  -25.5798  -39.9990 H   0  0  0  0  0  0  0  0  0  0  0  0
  -15.3349  -24.9630  -40.2470 H   0  0  0  0  0  0  0  0  0  0  0  0
  -16.6756  -23.4517  -36.9161 H   0  0  0  0  0  0  0  0  0  0  0  0
  -16.7831  -25.0447  -36.2150 H   0  0  0  0  0  0  0  0  0  0  0  0
  -15.8716  -26.1474  -38.0338 H   0  0  0  0  0  0  0  0  0  0  0  0
   -9.1912  -25.7960  -35.0164 H   0  0  0  0  0  0  0  0  0  0  0  0
  -10.2657  -26.0774  -33.6696 H   0  0  0  0  0  0  0  0  0  0  0  0
  -12.1040  -26.7192  -35.1991 H   0  0  0  0  0  0  0  0  0  0  0  0
  -11.0675  -26.4836  -36.6013 H   0  0  0  0  0  0  0  0  0  0  0  0
  -10.7981  -24.0371  -35.8504 H   0  0  0  0  0  0  0  0  0  0  0  0
  -12.1122  -24.3218  -34.7022 H   0  0  0  0  0  0  0  0  0  0  0  0
   -4.1937  -34.6873  -32.7171 H   0  0  0  0  0  0  0  0  0  0  0  0
   -4.5746  -34.4098  -34.3728 H   0  0  0  0  0  0  0  0  0  0  0  0
  -14.1681  -23.9049  -38.4822 H   0  0  0  0  0  0  0  0  0  0  0  0
  -12.3596  -23.7682  -37.4467 H   0  0  0  0  0  0  0  0  0  0  0  0
  1  2  2  0  0  0  0
  1  3  1  0  0  0  0
  2  4  1  0  0  0  0
  3  5  2  0  0  0  0
  4 11  2  0  0  0  0
  5 11  1  0  0  0  0
  6  8  1  0  0  0  0
  6 12  2  0  0  0  0
  7  9  2  0  0  0  0
  7 12  1  0  0  0  0
  8 13  2  0  0  0  0
  9 13  1  0  0  0  0
 10 14  2  0  0  0  0
 10 15  1  0  0  0  0
 11 14  1  0  0  0  0
 12 28  1  0  0  0  0
 13 35  1  0  0  0  0
 14 28  1  0  0  0  0
 15 24  1  0  0  0  0
 15 27  2  0  0  0  0
 16 30  1  0  0  0  0
 16 31  1  0  0  0  0
 16 32  2  0  0  0  0
 17 18  1  0  0  0  0
 17 19  1  0  0  0  0
 18 20  1  0  0  0  0
 19 21  1  0  0  0  0
 20 22  1  0  0  0  0
 21 23  1  0  0  0  0
 22 23  1  0  0  0  0
 23 30  1  0  0  0  0
 24 25  1  0  0  0  0
 25 26  1  0  0  0  0
 26 31  1  0  0  0  0
 27 28  1  0  0  0  0
 29 35  1  0  0  0  0
 33 35  2  0  0  0  0
 34 35  2  0  0  0  0
  1 36  1  0  0  0  0
  2 37  1  0  0  0  0
  3 38  1  0  0  0  0
  4 39  1  0  0  0  0
  5 40  1  0  0  0  0
  6 41  1  0  0  0  0
  7 42  1  0  0  0  0
  8 43  1  0  0  0  0
  9 44  1  0  0  0  0
 10 45  1  0  0  0  0
 17 46  1  0  0  0  0
 17 47  1  0  0  0  0
 18 48  1  0  0  0  0
 18 49  1  0  0  0  0
 19 50  1  0  0  0  0
 19 51  1  0  0  0  0
 20 52  1  0  0  0  0
 20 53  1  0  0  0  0
 21 54  1  0  0  0  0
 21 55  1  0  0  0  0
 22 56  1  0  0  0  0
 22 57  1  0  0  0  0
 23 58  1  0  0  0  0
 24 59  1  0  0  0  0
 24 60  1  0  0  0  0
 25 61  1  0  0  0  0
 25 62  1  0  0  0  0
 26 63  1  0  0  0  0
 26 64  1  0  0  0  0
 29 65  1  0  0  0  0
 29 66  1  0  0  0  0
 30 67  1  0  0  0  0
 31 68  1  0  0  0  0
M  END
> <Name>
A_78

> <SourceTag>
A_78

> <Gold.Version>
5.2

> <Gold.Id.Protein>
6HGV|6HGV_protein|mol2

> <Gold.Goldscore.Fitness>
86.8512

> <Gold.Goldscore.Internal.Vdw>
3.0190

> <Gold.Goldscore.Internal.Torsion>
-12.3090

> <Gold.Goldscore.External.Vdw>
63.6505

> <Gold.Goldscore.Internal.HBond>
0.0000

> <Gold.Goldscore.External.HBond>
0.0000

> <Gold.Goldscore.Internal.Correction>
-8.6219

> <Gold.Goldscore.Internal.Vdw.Weighted>
3.0190

> <Gold.Goldscore.Internal.Torsion.Weighted>
-12.3090

> <Gold.Goldscore.External.Vdw.Weighted>
87.5194

> <Gold.Goldscore.Internal.HBond.Weighted>
0.0000

> <Gold.Goldscore.External.HBond.Weighted>
0.0000

> <Gold.Goldscore.Internal.Correction.Weighted>
-8.6219

> <Gold.Protein.RotatedTorsions>
[ 3781 1176 1175 1172 ] final  158.04 input   60.00 | X-H torsion
[ 3847 1247 1246 1244 ] final  136.06 input   60.00 | X-H torsion
[ 4507 1931 1930 1928 ] final -178.59 input   60.00 | X-H torsion
[ 3677 1070 1069 1066 ] final  -96.36 input   60.00 | X-H torsion
[ 3525  925  924  922 ] final   69.60 input   59.99 | X-H torsion
[ 4531 1957 1955 1953 ] final   71.86 input   60.00 | X-H torsion

> <Gold.Protein.ActiveResidues>
 PHE267  PRO268  MET310  ASP335  TRP336  MET339  TYR343  THR360  PRO361  ILE363 
 PRO371  SER374  ILE375  ASN378  PHE381  TYR383  GLN384  PHE387  LEU408  LEU417 
 MET419  LEU428  TYR466  MET469  ASN472  ASP496  VAL498  LEU499  MET503  HIS524 
 TRP525 

> <Gold.Protein.RotatedAtoms>
   -2.6646  -29.9191  -30.8402 H   0  0  0  0  0  0  0  0  0  0  0  0  # atno 3525 bound_to 925 
  -11.7883  -23.7765  -31.4034 H   0  0  0  0  0  0  0  0  0  0  0  0  # atno 3677 bound_to 1070
   -9.4076  -36.7119  -32.5918 H   0  0  0  0  0  0  0  0  0  0  0  0  # atno 3781 bound_to 1176
  -14.3225  -28.0441  -37.8572 H   0  0  0  0  0  0  0  0  0  0  0  0  # atno 3847 bound_to 1247
  -12.8855  -23.8539  -40.2017 H   0  0  0  0  0  0  0  0  0  0  0  0  # atno 4507 bound_to 1931
   -2.9810  -33.5925  -36.6843 H   0  0  0  0  0  0  0  0  0  0  0  0  # atno 4531 bound_to 1957
  -10.7769  -37.4354  -33.0911 LP  0  0  0  0  0  0  0  0  0  0  0  0  # atno 5205 bound_to 1176
   -9.9307  -36.4869  -34.1162 LP  0  0  0  0  0  0  0  0  0  0  0  0  # atno 5206 bound_to 1176
  -15.4934  -28.8652  -37.0808 LP  0  0  0  0  0  0  0  0  0  0  0  0  # atno 5215 bound_to 1247
  -15.7546  -27.3281  -37.5663 LP  0  0  0  0  0  0  0  0  0  0  0  0  # atno 5216 bound_to 1247
  -12.6262  -24.6466  -38.8044 LP  0  0  0  0  0  0  0  0  0  0  0  0  # atno 5217 bound_to 1931
  -13.6844  -25.2387  -39.8981 LP  0  0  0  0  0  0  0  0  0  0  0  0  # atno 5218 bound_to 1931
  -11.2961  -22.3361  -30.8281 LP  0  0  0  0  0  0  0  0  0  0  0  0  # atno 5224 bound_to 1070
  -12.7708  -22.9155  -30.4330 LP  0  0  0  0  0  0  0  0  0  0  0  0  # atno 5225 bound_to 1070

$$$$
A_2|SEH_inhibs_minimized|sdf|19|dock4
  -GOLD-   41821 9303D 1   1.00000     0.00000

 82 85  0  0  0  0  0  0  0  0  1 V2000
   -5.4499  -37.6725  -32.3356 C   0  0  0  0  0  0  0  0  0  0  0  0
   -5.6928  -37.1840  -31.0518 C   0  0  0  0  0  0  0  0  0  0  0  0
   -5.0951  -36.7949  -33.3602 C   0  0  0  0  0  0  0  0  0  0  0  0
   -5.5809  -35.8179  -30.7929 C   0  0  0  0  0  0  0  0  0  0  0  0
   -4.9831  -35.4289  -33.1010 C   0  0  0  0  0  0  0  0  0  0  0  0
   -5.2260  -34.9404  -31.8174 C   0  0  0  0  0  0  0  0  0  0  0  0
   -5.3150  -31.8798  -33.9296 C   0  0  0  0  0  0  0  0  0  0  0  0
  -19.5206  -25.0021  -36.5612 C   0  0  0  0  0  0  0  0  0  0  0  0
  -24.7150  -26.0004  -36.4529 C   0  0  0  0  0  0  0  0  0  0  0  0
  -23.9580  -24.4968  -38.3118 C   0  0  0  0  0  0  0  0  0  0  0  0
  -24.5905  -23.5220  -36.0894 C   0  0  0  0  0  0  0  0  0  0  0  0
  -22.3151  -26.0154  -37.1795 C   0  0  0  0  0  0  0  0  0  0  0  0
  -22.9484  -25.0397  -34.9550 C   0  0  0  0  0  0  0  0  0  0  0  0
  -22.1905  -23.5332  -36.8163 C   0  0  0  0  0  0  0  0  0  0  0  0
  -23.7699  -25.8773  -37.6600 C   0  0  0  0  0  0  0  0  0  0  0  0
  -24.4060  -24.8976  -35.4264 C   0  0  0  0  0  0  0  0  0  0  0  0
  -23.6451  -23.3858  -37.2950 C   0  0  0  0  0  0  0  0  0  0  0  0
  -21.9806  -24.9112  -36.1521 C   0  0  0  0  0  0  0  0  0  0  0  0
   -6.2969  -31.3941  -34.9719 C   0  0  0  0  0  0  0  0  0  0  0  0
   -6.8762  -30.0305  -34.6066 C   0  0  0  0  0  0  0  0  0  0  0  0
   -7.9991  -29.5934  -35.5530 C   0  0  0  0  0  0  0  0  0  0  0  0
   -8.8038  -28.4415  -34.9470 C   0  0  0  0  0  0  0  0  0  0  0  0
   -9.8862  -27.8922  -35.8797 C   0  0  0  0  0  0  0  0  0  0  0  0
  -11.0112  -27.1023  -35.2052 C   0  0  0  0  0  0  0  0  0  0  0  0
  -12.2207  -26.7793  -36.0874 C   0  0  0  0  0  0  0  0  0  0  0  0
  -13.3892  -26.1549  -35.3227 C   0  0  0  0  0  0  0  0  0  0  0  0
  -14.5289  -25.6920  -36.2372 C   0  0  0  0  0  0  0  0  0  0  0  0
  -15.9019  -25.5424  -35.5700 C   0  0  0  0  0  0  0  0  0  0  0  0
  -17.0348  -25.1508  -36.5134 C   0  0  0  0  0  0  0  0  0  0  0  0
   -5.9232  -32.5511  -32.8209 N   0  0  0  0  0  0  0  0  0  0  0  0
  -20.6147  -25.0451  -35.7011 N   0  0  0  0  0  0  0  0  0  0  0  0
  -18.3183  -25.1565  -35.8677 N   0  0  0  0  0  0  0  0  0  0  0  0
   -4.1071  -31.6927  -34.0342 O   0  0  0  0  0  0  0  0  0  0  0  0
  -19.5983  -24.8473  -37.7792 O   0  0  0  0  0  0  0  0  0  0  0  0
   -5.8017  -32.9270  -30.2623 O   0  0  0  0  0  0  0  0  0  0  0  0
   -3.6741  -32.8691  -31.6024 O   0  0  0  0  0  0  0  0  0  0  0  0
   -5.0793  -33.2096  -31.4876 S   0  0  0  0  0  0  0  0  0  0  0  0
   -5.5368  -38.7361  -32.5373 H   0  0  0  0  0  0  0  0  0  0  0  0
   -5.9690  -37.8667  -30.2536 H   0  0  0  0  0  0  0  0  0  0  0  0
   -4.9061  -37.1745  -34.3601 H   0  0  0  0  0  0  0  0  0  0  0  0
   -5.7708  -35.4477  -29.7889 H   0  0  0  0  0  0  0  0  0  0  0  0
   -4.7043  -34.7540  -33.9059 H   0  0  0  0  0  0  0  0  0  0  0  0
  -25.7576  -25.9220  -36.7845 H   0  0  0  0  0  0  0  0  0  0  0  0
  -24.6021  -26.9874  -35.9877 H   0  0  0  0  0  0  0  0  0  0  0  0
  -23.3004  -24.4017  -39.1845 H   0  0  0  0  0  0  0  0  0  0  0  0
  -24.9876  -24.3920  -38.6758 H   0  0  0  0  0  0  0  0  0  0  0  0
  -25.6310  -23.3994  -36.4144 H   0  0  0  0  0  0  0  0  0  0  0  0
  -24.3882  -22.7257  -35.3626 H   0  0  0  0  0  0  0  0  0  0  0  0
  -22.1633  -27.0077  -36.7350 H   0  0  0  0  0  0  0  0  0  0  0  0
  -21.6322  -25.9553  -38.0372 H   0  0  0  0  0  0  0  0  0  0  0  0
  -22.7242  -24.2729  -34.2017 H   0  0  0  0  0  0  0  0  0  0  0  0
  -22.8105  -26.0086  -34.4572 H   0  0  0  0  0  0  0  0  0  0  0  0
  -21.5048  -23.4123  -37.6651 H   0  0  0  0  0  0  0  0  0  0  0  0
  -21.9490  -22.7287  -36.1090 H   0  0  0  0  0  0  0  0  0  0  0  0
  -23.9953  -26.6642  -38.3884 H   0  0  0  0  0  0  0  0  0  0  0  0
  -25.0827  -24.9893  -34.5696 H   0  0  0  0  0  0  0  0  0  0  0  0
  -23.7826  -22.4053  -37.7642 H   0  0  0  0  0  0  0  0  0  0  0  0
   -5.7454  -31.3154  -35.9164 H   0  0  0  0  0  0  0  0  0  0  0  0
   -7.0932  -32.1290  -35.1309 H   0  0  0  0  0  0  0  0  0  0  0  0
   -7.2504  -30.0430  -33.5754 H   0  0  0  0  0  0  0  0  0  0  0  0
   -6.0674  -29.2905  -34.6451 H   0  0  0  0  0  0  0  0  0  0  0  0
   -7.5698  -29.2781  -36.5114 H   0  0  0  0  0  0  0  0  0  0  0  0
   -8.6603  -30.4430  -35.7544 H   0  0  0  0  0  0  0  0  0  0  0  0
   -9.2491  -28.7606  -33.9983 H   0  0  0  0  0  0  0  0  0  0  0  0
   -8.1213  -27.6175  -34.7030 H   0  0  0  0  0  0  0  0  0  0  0  0
   -9.4053  -27.2611  -36.6367 H   0  0  0  0  0  0  0  0  0  0  0  0
  -10.3363  -28.7283  -36.4299 H   0  0  0  0  0  0  0  0  0  0  0  0
  -11.3541  -27.6734  -34.3330 H   0  0  0  0  0  0  0  0  0  0  0  0
  -10.6086  -26.1628  -34.8075 H   0  0  0  0  0  0  0  0  0  0  0  0
  -11.8922  -26.0781  -36.8635 H   0  0  0  0  0  0  0  0  0  0  0  0
  -12.5478  -27.6877  -36.6043 H   0  0  0  0  0  0  0  0  0  0  0  0
  -13.0275  -25.2826  -34.7641 H   0  0  0  0  0  0  0  0  0  0  0  0
  -13.7780  -26.8582  -34.5788 H   0  0  0  0  0  0  0  0  0  0  0  0
  -14.2416  -24.7362  -36.6924 H   0  0  0  0  0  0  0  0  0  0  0  0
  -14.6271  -26.4044  -37.0662 H   0  0  0  0  0  0  0  0  0  0  0  0
  -15.8403  -24.8035  -34.7631 H   0  0  0  0  0  0  0  0  0  0  0  0
  -16.1505  -26.4980  -35.0903 H   0  0  0  0  0  0  0  0  0  0  0  0
  -16.8716  -24.1351  -36.8878 H   0  0  0  0  0  0  0  0  0  0  0  0
  -17.0904  -25.8182  -37.3775 H   0  0  0  0  0  0  0  0  0  0  0  0
   -6.9463  -32.6522  -32.8112 H   0  0  0  0  0  0  0  0  0  0  0  0
  -20.4443  -25.1770  -34.7090 H   0  0  0  0  0  0  0  0  0  0  0  0
  -18.3548  -25.2326  -34.8526 H   0  0  0  0  0  0  0  0  0  0  0  0
  1  2  2  0  0  0  0
  1  3  1  0  0  0  0
  2  4  1  0  0  0  0
  3  5  2  0  0  0  0
  4  6  2  0  0  0  0
  5  6  1  0  0  0  0
  6 37  1  0  0  0  0
  7 19  1  0  0  0  0
  7 30  1  0  0  0  0
  7 33  2  0  0  0  0
  8 31  1  0  0  0  0
  8 32  1  0  0  0  0
  8 34  2  0  0  0  0
  9 15  1  0  0  0  0
  9 16  1  0  0  0  0
 10 15  1  0  0  0  0
 10 17  1  0  0  0  0
 11 16  1  0  0  0  0
 11 17  1  0  0  0  0
 12 15  1  0  0  0  0
 12 18  1  0  0  0  0
 13 16  1  0  0  0  0
 13 18  1  0  0  0  0
 14 17  1  0  0  0  0
 14 18  1  0  0  0  0
 18 31  1  0  0  0  0
 19 20  1  0  0  0  0
 20 21  1  0  0  0  0
 21 22  1  0  0  0  0
 22 23  1  0  0  0  0
 23 24  1  0  0  0  0
 24 25  1  0  0  0  0
 25 26  1  0  0  0  0
 26 27  1  0  0  0  0
 27 28  1  0  0  0  0
 28 29  1  0  0  0  0
 29 32  1  0  0  0  0
 30 37  1  0  0  0  0
 35 37  2  0  0  0  0
 36 37  2  0  0  0  0
  1 38  1  0  0  0  0
  2 39  1  0  0  0  0
  3 40  1  0  0  0  0
  4 41  1  0  0  0  0
  5 42  1  0  0  0  0
  9 43  1  0  0  0  0
  9 44  1  0  0  0  0
 10 45  1  0  0  0  0
 10 46  1  0  0  0  0
 11 47  1  0  0  0  0
 11 48  1  0  0  0  0
 12 49  1  0  0  0  0
 12 50  1  0  0  0  0
 13 51  1  0  0  0  0
 13 52  1  0  0  0  0
 14 53  1  0  0  0  0
 14 54  1  0  0  0  0
 15 55  1  0  0  0  0
 16 56  1  0  0  0  0
 17 57  1  0  0  0  0
 19 58  1  0  0  0  0
 19 59  1  0  0  0  0
 20 60  1  0  0  0  0
 20 61  1  0  0  0  0
 21 62  1  0  0  0  0
 21 63  1  0  0  0  0
 22 64  1  0  0  0  0
 22 65  1  0  0  0  0
 23 66  1  0  0  0  0
 23 67  1  0  0  0  0
 24 68  1  0  0  0  0
 24 69  1  0  0  0  0
 25 70  1  0  0  0  0
 25 71  1  0  0  0  0
 26 72  1  0  0  0  0
 26 73  1  0  0  0  0
 27 74  1  0  0  0  0
 27 75  1  0  0  0  0
 28 76  1  0  0  0  0
 28 77  1  0  0  0  0
 29 78  1  0  0  0  0
 29 79  1  0  0  0  0
 30 80  1  0  0  0  0
 31 81  1  0  0  0  0
 32 82  1  0  0  0  0
M  END
> <Name>
A_2

> <SourceTag>
A_2

> <Gold.Version>
5.2

> <Gold.Id.Protein>
6HGV|6HGV_protein|mol2

> <Gold.Goldscore.Fitness>
89.4742

> <Gold.Goldscore.Internal.Vdw>
-3.0898

> <Gold.Goldscore.Internal.Torsion>
-8.4242

> <Gold.Goldscore.External.Vdw>
65.7335

> <Gold.Goldscore.Internal.HBond>
0.0000

> <Gold.Goldscore.External.HBond>
2.3238

> <Gold.Goldscore.Internal.Correction>
-8.2809

> <Gold.Goldscore.Hbonds>
donor molecule, donor type, donor heavy atom, donor atom, acceptor molecule, acceptor atom, score
      L1  H    31    81       P1  2185  0.36
      L1  H    32    82       P1  2185  0.03

> <Gold.Goldscore.Internal.Vdw.Weighted>
-3.0898

> <Gold.Goldscore.Internal.Torsion.Weighted>
-8.4242

> <Gold.Goldscore.External.Vdw.Weighted>
90.3835

> <Gold.Goldscore.Internal.HBond.Weighted>
0.0000

> <Gold.Goldscore.External.HBond.Weighted>
2.3238

> <Gold.Goldscore.Internal.Correction.Weighted>
-8.2809

> <Gold.Protein.RotatedTorsions>
[ 3781 1176 1175 1172 ] final -158.90 input   60.00 | X-H torsion
[ 3847 1247 1246 1244 ] final   51.50 input   60.00 | X-H torsion
[ 4507 1931 1930 1928 ] final  103.04 input   60.00 | X-H torsion
[ 3677 1070 1069 1066 ] final  -87.46 input   60.00 | X-H torsion
[ 3525  925  924  922 ] final   50.19 input   59.99 | X-H torsion
[ 4531 1957 1955 1953 ] final   56.99 input   60.00 | X-H torsion

> <Gold.Protein.ActiveResidues>
 PHE267  PRO268  MET310  ASP335  TRP336  MET339  TYR343  THR360  PRO361  ILE363 
 PRO371  SER374  ILE375  ASN378  PHE381  TYR383  GLN384  PHE387  LEU408  LEU417 
 MET419  LEU428  TYR466  MET469  ASN472  ASP496  VAL498  LEU499  MET503  HIS524 
 TRP525 

> <Gold.Protein.RotatedAtoms>
   -2.9519  -29.7913  -30.8681 H   0  0  0  0  0  0  0  0  0  0  0  0  # atno 3525 bound_to 925 
  -11.9211  -23.8187  -31.3621 H   0  0  0  0  0  0  0  0  0  0  0  0  # atno 3677 bound_to 1070
   -9.2456  -36.3856  -33.1744 H   0  0  0  0  0  0  0  0  0  0  0  0  # atno 3781 bound_to 1176
  -14.9575  -28.9535  -37.2601 H   0  0  0  0  0  0  0  0  0  0  0  0  # atno 3847 bound_to 1247
  -12.4336  -24.1003  -39.1365 H   0  0  0  0  0  0  0  0  0  0  0  0  # atno 4507 bound_to 1931
   -3.0698  -33.3679  -36.6636 H   0  0  0  0  0  0  0  0  0  0  0  0  # atno 4531 bound_to 1957
  -10.3703  -37.3725  -32.5348 LP  0  0  0  0  0  0  0  0  0  0  0  0  # atno 5205 bound_to 1176
  -10.5004  -36.8784  -34.0858 LP  0  0  0  0  0  0  0  0  0  0  0  0  # atno 5206 bound_to 1176
  -16.0439  -27.7424  -37.2943 LP  0  0  0  0  0  0  0  0  0  0  0  0  # atno 5215 bound_to 1247
  -14.5647  -27.5350  -37.9542 LP  0  0  0  0  0  0  0  0  0  0  0  0  # atno 5216 bound_to 1247
  -13.4285  -25.3782  -39.2949 LP  0  0  0  0  0  0  0  0  0  0  0  0  # atno 5217 bound_to 1931
  -13.3372  -24.2590  -40.4805 LP  0  0  0  0  0  0  0  0  0  0  0  0  # atno 5218 bound_to 1931
  -11.2162  -22.4215  -30.9159 LP  0  0  0  0  0  0  0  0  0  0  0  0  # atno 5224 bound_to 1070
  -12.7170  -22.7876  -30.3866 LP  0  0  0  0  0  0  0  0  0  0  0  0  # atno 5225 bound_to 1070

$$$$
A_47|SEH_inhibs_minimized|sdf|33|dock7
  -GOLD-   41821 9583D 1   1.00000     0.00000

 55 58  0  0  0  0  0  0  0  0  1 V2000
   -4.7249  -30.5522  -33.9292 C   0  0  0  0  0  0  0  0  0  0  0  0
   -5.0343  -32.9482  -33.9109 C   0  0  0  0  0  0  0  0  0  0  0  0
   -7.3886  -33.5578  -36.3435 C   0  0  0  0  0  0  0  0  0  0  0  0
   -8.3056  -33.3689  -34.1163 C   0  0  0  0  0  0  0  0  0  0  0  0
   -3.5064  -30.7044  -33.2679 C   0  0  0  0  0  0  0  0  0  0  0  0
   -3.8156  -33.1005  -33.2496 C   0  0  0  0  0  0  0  0  0  0  0  0
   -8.0328  -34.7843  -36.5048 C   0  0  0  0  0  0  0  0  0  0  0  0
   -8.9500  -34.5954  -34.2775 C   0  0  0  0  0  0  0  0  0  0  0  0
  -16.0103  -25.8715  -36.2379 C   0  0  0  0  0  0  0  0  0  0  0  0
  -15.2900  -26.4607  -35.2221 C   0  0  0  0  0  0  0  0  0  0  0  0
  -14.1305  -24.7695  -36.9318 C   0  0  0  0  0  0  0  0  0  0  0  0
   -5.4889  -31.6741  -34.2509 C   0  0  0  0  0  0  0  0  0  0  0  0
   -7.5250  -32.8499  -35.1492 C   0  0  0  0  0  0  0  0  0  0  0  0
   -3.0517  -31.9786  -32.9281 C   0  0  0  0  0  0  0  0  0  0  0  0
   -8.8136  -35.3031  -35.4717 C   0  0  0  0  0  0  0  0  0  0  0  0
  -13.4102  -25.3587  -35.9159 C   0  0  0  0  0  0  0  0  0  0  0  0
  -10.0201  -28.2317  -35.8100 C   0  0  0  0  0  0  0  0  0  0  0  0
  -11.4966  -25.1766  -34.2763 C   0  0  0  0  0  0  0  0  0  0  0  0
  -11.0933  -26.6387  -34.1262 C   0  0  0  0  0  0  0  0  0  0  0  0
  -10.9512  -26.0083  -36.4438 C   0  0  0  0  0  0  0  0  0  0  0  0
  -11.9311  -25.0577  -35.7450 C   0  0  1  0  0  0  0  0  0  0  0  0
   -7.7305  -30.4156  -34.3494 C   0  0  0  0  0  0  0  0  0  0  0  0
   -9.1507  -30.3821  -34.9189 C   0  0  0  0  0  0  0  0  0  0  0  0
   -6.8197  -31.5074  -34.9732 C   0  0  0  0  0  0  0  0  0  0  0  0
  -15.4435  -25.0153  -37.1109 N   0  0  0  0  0  0  0  0  0  0  0  0
  -13.9770  -26.2148  -35.0429 N   0  0  0  0  0  0  0  0  0  0  0  0
  -10.6477  -27.0389  -35.4579 N   0  0  0  0  0  0  0  0  0  0  0  0
   -9.7879  -29.0970  -34.7468 N   0  0  0  0  0  0  0  0  0  0  0  0
   -9.7000  -28.4982  -36.9715 O   0  0  0  0  0  0  0  0  0  0  0  0
   -1.8819  -32.1253  -32.2925 F   0  0  0  0  0  0  0  0  0  0  0  0
   -9.4319  -36.4811  -35.6259 F   0  0  0  0  0  0  0  0  0  0  0  0
   -5.0715  -29.5555  -34.1895 H   0  0  0  0  0  0  0  0  0  0  0  0
   -5.6232  -33.8279  -34.1569 H   0  0  0  0  0  0  0  0  0  0  0  0
   -6.7820  -33.1614  -37.1536 H   0  0  0  0  0  0  0  0  0  0  0  0
   -8.4169  -32.8246  -33.1821 H   0  0  0  0  0  0  0  0  0  0  0  0
   -2.9119  -29.8309  -33.0169 H   0  0  0  0  0  0  0  0  0  0  0  0
   -3.4618  -34.0925  -32.9847 H   0  0  0  0  0  0  0  0  0  0  0  0
   -7.9262  -35.3356  -37.4343 H   0  0  0  0  0  0  0  0  0  0  0  0
   -9.5573  -34.9996  -33.4732 H   0  0  0  0  0  0  0  0  0  0  0  0
  -17.0653  -26.0696  -36.3813 H   0  0  0  0  0  0  0  0  0  0  0  0
  -15.7463  -27.1485  -34.5210 H   0  0  0  0  0  0  0  0  0  0  0  0
  -13.6814  -24.0804  -37.6373 H   0  0  0  0  0  0  0  0  0  0  0  0
  -12.2664  -24.8826  -33.5561 H   0  0  0  0  0  0  0  0  0  0  0  0
  -10.6170  -24.5416  -34.1102 H   0  0  0  0  0  0  0  0  0  0  0  0
  -10.2941  -26.7748  -33.3916 H   0  0  0  0  0  0  0  0  0  0  0  0
  -11.9456  -27.2690  -33.8506 H   0  0  0  0  0  0  0  0  0  0  0  0
  -11.3350  -26.4560  -37.3666 H   0  0  0  0  0  0  0  0  0  0  0  0
  -10.0077  -25.4976  -36.6699 H   0  0  0  0  0  0  0  0  0  0  0  0
  -11.7825  -23.9989  -36.1009 H   0  0  0  0  0  0  0  0  0  0  0  0
   -7.2937  -29.4188  -34.4814 H   0  0  0  0  0  0  0  0  0  0  0  0
   -7.7941  -30.5834  -33.2655 H   0  0  0  0  0  0  0  0  0  0  0  0
   -9.7929  -31.1396  -34.4604 H   0  0  0  0  0  0  0  0  0  0  0  0
   -9.1201  -30.5788  -35.9957 H   0  0  0  0  0  0  0  0  0  0  0  0
   -6.6018  -31.1502  -35.9901 H   0  0  0  0  0  0  0  0  0  0  0  0
  -10.0767  -28.8154  -33.8155 H   0  0  0  0  0  0  0  0  0  0  0  0
  1  5  1  0  0  0  0
  1 12  2  0  0  0  0
  2  6  2  0  0  0  0
  2 12  1  0  0  0  0
  3  7  1  0  0  0  0
  3 13  2  0  0  0  0
  4  8  2  0  0  0  0
  4 13  1  0  0  0  0
  5 14  2  0  0  0  0
  6 14  1  0  0  0  0
  7 15  2  0  0  0  0
  8 15  1  0  0  0  0
  9 10  2  0  0  0  0
  9 25  1  0  0  0  0
 10 26  1  0  0  0  0
 11 16  1  0  0  0  0
 11 25  2  0  0  0  0
 12 24  1  0  0  0  0
 13 24  1  0  0  0  0
 14 30  1  0  0  0  0
 15 31  1  0  0  0  0
 16 21  1  0  0  0  0
 16 26  2  0  0  0  0
 17 27  1  0  0  0  0
 17 28  1  0  0  0  0
 17 29  2  0  0  0  0
 18 19  1  0  0  0  0
 18 21  1  0  0  0  0
 19 27  1  0  0  0  0
 20 21  1  0  0  0  0
 20 27  1  0  0  0  0
 22 23  1  0  0  0  0
 22 24  1  0  0  0  0
 23 28  1  0  0  0  0
  1 32  1  0  0  0  0
  2 33  1  0  0  0  0
  3 34  1  0  0  0  0
  4 35  1  0  0  0  0
  5 36  1  0  0  0  0
  6 37  1  0  0  0  0
  7 38  1  0  0  0  0
  8 39  1  0  0  0  0
  9 40  1  0  0  0  0
 10 41  1  0  0  0  0
 11 42  1  0  0  0  0
 18 43  1  0  0  0  0
 18 44  1  0  0  0  0
 19 45  1  0  0  0  0
 19 46  1  0  0  0  0
 20 47  1  0  0  0  0
 20 48  1  0  0  0  0
 21 49  1  0  0  0  0
 22 50  1  0  0  0  0
 22 51  1  0  0  0  0
 23 52  1  0  0  0  0
 23 53  1  0  0  0  0
 24 54  1  0  0  0  0
 28 55  1  0  0  0  0
M  END
> <Name>
A_47

> <SourceTag>
A_47

> <Gold.Version>
5.2

> <Gold.Id.Protein>
6HGV|6HGV_protein|mol2

> <Gold.Goldscore.Fitness>
64.5871

> <Gold.Goldscore.Internal.Vdw>
-5.4786

> <Gold.Goldscore.Internal.Torsion>
-2.8541

> <Gold.Goldscore.External.Vdw>
50.3862

> <Gold.Goldscore.Internal.HBond>
0.0000

> <Gold.Goldscore.External.HBond>
0.0000

> <Gold.Goldscore.Internal.Correction>
-3.6388

> <Gold.Goldscore.Internal.Vdw.Weighted>
-5.4786

> <Gold.Goldscore.Internal.Torsion.Weighted>
-2.8541

> <Gold.Goldscore.External.Vdw.Weighted>
69.2810

> <Gold.Goldscore.Internal.HBond.Weighted>
0.0000

> <Gold.Goldscore.External.HBond.Weighted>
0.0000

> <Gold.Goldscore.Internal.Correction.Weighted>
-3.6388

> <Gold.Protein.RotatedTorsions>
[ 3781 1176 1175 1172 ] final   94.99 input   60.00 | X-H torsion
[ 3847 1247 1246 1244 ] final  133.84 input   60.00 | X-H torsion
[ 4507 1931 1930 1928 ] final  -45.22 input   60.00 | X-H torsion
[ 3677 1070 1069 1066 ] final  -97.74 input   60.00 | X-H torsion
[ 3525  925  924  922 ] final  -44.14 input   59.99 | X-H torsion
[ 4531 1957 1955 1953 ] final   32.94 input   60.00 | X-H torsion

> <Gold.Protein.ActiveResidues>
 PHE267  PRO268  MET310  ASP335  TRP336  MET339  TYR343  THR360  PRO361  ILE363 
 PRO371  SER374  ILE375  ASN378  PHE381  TYR383  GLN384  PHE387  LEU408  LEU417 
 MET419  LEU428  TYR466  MET469  ASN472  ASP496  VAL498  LEU499  MET503  HIS524 
 TRP525 

> <Gold.Protein.RotatedAtoms>
   -3.7663  -29.5346  -29.7928 H   0  0  0  0  0  0  0  0  0  0  0  0  # atno 3525 bound_to 925 
  -11.7680  -23.7683  -31.4087 H   0  0  0  0  0  0  0  0  0  0  0  0  # atno 3677 bound_to 1070
  -10.1838  -37.2880  -32.4362 H   0  0  0  0  0  0  0  0  0  0  0  0  # atno 3781 bound_to 1176
  -14.3174  -28.0782  -37.8462 H   0  0  0  0  0  0  0  0  0  0  0  0  # atno 3847 bound_to 1247
  -13.6272  -25.3234  -39.7046 H   0  0  0  0  0  0  0  0  0  0  0  0  # atno 4507 bound_to 1931
   -3.0861  -32.9784  -36.6537 H   0  0  0  0  0  0  0  0  0  0  0  0  # atno 4531 bound_to 1957
  -10.6433  -37.0159  -33.9733 LP  0  0  0  0  0  0  0  0  0  0  0  0  # atno 5205 bound_to 1176
   -9.2826  -36.3263  -33.3906 LP  0  0  0  0  0  0  0  0  0  0  0  0  # atno 5206 bound_to 1176
  -15.5253  -28.8487  -37.0746 LP  0  0  0  0  0  0  0  0  0  0  0  0  # atno 5215 bound_to 1247
  -15.7279  -27.3103  -37.5836 LP  0  0  0  0  0  0  0  0  0  0  0  0  # atno 5216 bound_to 1247
  -13.0321  -23.9464  -40.3353 LP  0  0  0  0  0  0  0  0  0  0  0  0  # atno 5217 bound_to 1931
  -12.5314  -24.4590  -38.8679 LP  0  0  0  0  0  0  0  0  0  0  0  0  # atno 5218 bound_to 1931
  -11.3099  -22.3243  -30.8145 LP  0  0  0  0  0  0  0  0  0  0  0  0  # atno 5224 bound_to 1070
  -12.7774  -22.9356  -30.4412 LP  0  0  0  0  0  0  0  0  0  0  0  0  # atno 5225 bound_to 1070

$$$$
A_80|SEH_inhibs_minimized|sdf|48|dock7
  -GOLD-   4182110353D 1   1.00000     0.00000

 62 66  0  0  0  0  0  0  0  0  1 V2000
  -14.7092  -23.9110  -38.3489 C   0  0  0  0  0  0  0  0  0  0  0  0
  -16.1064  -25.6113  -37.3519 C   0  0  0  0  0  0  0  0  0  0  0  0
  -13.7006  -24.2009  -37.4300 C   0  0  0  0  0  0  0  0  0  0  0  0
  -15.0978  -25.9011  -36.4329 C   0  0  0  0  0  0  0  0  0  0  0  0
  -15.9121  -24.6162  -38.3099 C   0  0  0  0  0  0  0  0  0  0  0  0
  -13.8949  -25.1960  -36.4721 C   0  0  0  0  0  0  0  0  0  0  0  0
  -16.9637  -24.3143  -39.2679 C   0  0  0  0  0  0  0  0  0  0  0  0
   -8.5613  -29.0628  -33.9701 C   0  0  0  0  0  0  0  0  0  0  0  0
  -10.4432  -25.8177  -33.8739 C   0  0  0  0  0  0  0  0  0  0  0  0
  -11.5067  -27.9721  -34.6654 C   0  0  0  0  0  0  0  0  0  0  0  0
  -10.5131  -25.2598  -35.2983 C   0  0  0  0  0  0  0  0  0  0  0  0
  -11.5788  -27.4132  -36.0894 C   0  0  0  0  0  0  0  0  0  0  0  0
   -6.2263  -33.1648  -33.1877 C   0  0  0  0  0  0  0  0  0  0  0  0
   -4.0995  -31.8604  -33.4411 C   0  0  0  0  0  0  0  0  0  0  0  0
   -5.2025  -32.8639  -35.4573 C   0  0  0  0  0  0  0  0  0  0  0  0
   -6.2334  -30.6788  -32.8601 C   0  0  0  0  0  0  0  0  0  0  0  0
   -7.3376  -31.6836  -34.8783 C   0  0  0  0  0  0  0  0  0  0  0  0
   -5.2076  -30.3772  -35.1329 C   0  0  0  0  0  0  0  0  0  0  0  0
   -5.4187  -31.9681  -32.6576 C   0  0  0  0  0  0  0  0  0  0  0  0
   -6.5274  -32.9769  -34.6842 C   0  0  0  0  0  0  0  0  0  0  0  0
   -4.3893  -31.6655  -34.9392 C   0  0  0  0  0  0  0  0  0  0  0  0
  -10.3717  -27.3479  -33.8474 C   0  0  1  0  0  0  0  0  0  0  0  0
  -11.6485  -25.8868  -36.1077 C   0  0  1  0  0  0  0  0  0  0  0  0
   -6.5407  -30.4663  -34.3590 C   0  0  0  0  0  0  0  0  0  0  0  0
   -9.0826  -27.8161  -34.3059 N   0  0  0  0  0  0  0  0  0  0  0  0
   -7.3091  -29.2549  -34.5451 N   0  0  0  0  0  0  0  0  0  0  0  0
  -18.0408  -24.9121  -39.3611 O   0  0  0  0  0  0  0  0  0  0  0  0
   -9.1330  -29.8877  -33.2586 O   0  0  0  0  0  0  0  0  0  0  0  0
  -16.6418  -23.2725  -40.0830 O   0  0  0  0  0  0  0  0  0  0  0  0
  -12.9057  -25.4804  -35.5703 O   0  0  0  0  0  0  0  0  0  0  0  0
  -14.5464  -23.1336  -39.0912 H   0  0  0  0  0  0  0  0  0  0  0  0
  -17.0399  -26.1666  -37.3132 H   0  0  0  0  0  0  0  0  0  0  0  0
  -12.7659  -23.6480  -37.4655 H   0  0  0  0  0  0  0  0  0  0  0  0
  -15.2549  -26.6771  -35.6888 H   0  0  0  0  0  0  0  0  0  0  0  0
   -9.5759  -25.3860  -33.3596 H   0  0  0  0  0  0  0  0  0  0  0  0
  -11.3319  -25.4926  -33.3183 H   0  0  0  0  0  0  0  0  0  0  0  0
  -12.4603  -27.7785  -34.1579 H   0  0  0  0  0  0  0  0  0  0  0  0
  -11.3905  -29.0618  -34.7110 H   0  0  0  0  0  0  0  0  0  0  0  0
  -10.6546  -24.1740  -35.2394 H   0  0  0  0  0  0  0  0  0  0  0  0
   -9.5588  -25.4376  -35.8083 H   0  0  0  0  0  0  0  0  0  0  0  0
  -10.7009  -27.7448  -36.6567 H   0  0  0  0  0  0  0  0  0  0  0  0
  -12.4626  -27.8337  -36.5836 H   0  0  0  0  0  0  0  0  0  0  0  0
   -5.6639  -34.0938  -33.0330 H   0  0  0  0  0  0  0  0  0  0  0  0
   -7.1635  -33.2628  -32.6262 H   0  0  0  0  0  0  0  0  0  0  0  0
   -3.5061  -31.0194  -33.0619 H   0  0  0  0  0  0  0  0  0  0  0  0
   -3.5000  -32.7665  -33.2909 H   0  0  0  0  0  0  0  0  0  0  0  0
   -4.6223  -33.7877  -35.3424 H   0  0  0  0  0  0  0  0  0  0  0  0
   -5.4031  -32.7452  -36.5292 H   0  0  0  0  0  0  0  0  0  0  0  0
   -7.1665  -30.7347  -32.2841 H   0  0  0  0  0  0  0  0  0  0  0  0
   -5.6774  -29.8200  -32.4613 H   0  0  0  0  0  0  0  0  0  0  0  0
   -7.5813  -31.5525  -35.9409 H   0  0  0  0  0  0  0  0  0  0  0  0
   -8.2975  -31.7623  -34.3507 H   0  0  0  0  0  0  0  0  0  0  0  0
   -4.6264  -29.5112  -34.7897 H   0  0  0  0  0  0  0  0  0  0  0  0
   -5.3979  -30.2154  -36.2021 H   0  0  0  0  0  0  0  0  0  0  0  0
   -5.2060  -32.1079  -31.5921 H   0  0  0  0  0  0  0  0  0  0  0  0
   -7.1016  -33.8326  -35.0566 H   0  0  0  0  0  0  0  0  0  0  0  0
   -3.4462  -31.5915  -35.4920 H   0  0  0  0  0  0  0  0  0  0  0  0
  -10.4524  -27.6897  -32.8092 H   0  0  0  0  0  0  0  0  0  0  0  0
  -11.6058  -25.5290  -37.1422 H   0  0  0  0  0  0  0  0  0  0  0  0
   -8.5310  -27.2064  -34.9014 H   0  0  0  0  0  0  0  0  0  0  0  0
   -6.9337  -28.5384  -35.1566 H   0  0  0  0  0  0  0  0  0  0  0  0
  -17.3624  -23.0324  -40.7037 H   0  0  0  0  0  0  0  0  0  0  0  0
  1  3  1  0  0  0  0
  1  5  2  0  0  0  0
  2  4  2  0  0  0  0
  2  5  1  0  0  0  0
  3  6  2  0  0  0  0
  4  6  1  0  0  0  0
  5  7  1  0  0  0  0
  6 30  1  0  0  0  0
  7 27  2  0  0  0  0
  7 29  1  0  0  0  0
  8 25  1  0  0  0  0
  8 26  1  0  0  0  0
  8 28  2  0  0  0  0
  9 11  1  0  0  0  0
  9 22  1  0  0  0  0
 10 12  1  0  0  0  0
 10 22  1  0  0  0  0
 11 23  1  0  0  0  0
 12 23  1  0  0  0  0
 13 19  1  0  0  0  0
 13 20  1  0  0  0  0
 14 19  1  0  0  0  0
 14 21  1  0  0  0  0
 15 20  1  0  0  0  0
 15 21  1  0  0  0  0
 16 19  1  0  0  0  0
 16 24  1  0  0  0  0
 17 20  1  0  0  0  0
 17 24  1  0  0  0  0
 18 21  1  0  0  0  0
 18 24  1  0  0  0  0
 22 25  1  0  0  0  0
 23 30  1  0  0  0  0
 24 26  1  0  0  0  0
  1 31  1  0  0  0  0
  2 32  1  0  0  0  0
  3 33  1  0  0  0  0
  4 34  1  0  0  0  0
  9 35  1  0  0  0  0
  9 36  1  0  0  0  0
 10 37  1  0  0  0  0
 10 38  1  0  0  0  0
 11 39  1  0  0  0  0
 11 40  1  0  0  0  0
 12 41  1  0  0  0  0
 12 42  1  0  0  0  0
 13 43  1  0  0  0  0
 13 44  1  0  0  0  0
 14 45  1  0  0  0  0
 14 46  1  0  0  0  0
 15 47  1  0  0  0  0
 15 48  1  0  0  0  0
 16 49  1  0  0  0  0
 16 50  1  0  0  0  0
 17 51  1  0  0  0  0
 17 52  1  0  0  0  0
 18 53  1  0  0  0  0
 18 54  1  0  0  0  0
 19 55  1  0  0  0  0
 20 56  1  0  0  0  0
 21 57  1  0  0  0  0
 22 58  1  0  0  0  0
 23 59  1  0  0  0  0
 25 60  1  0  0  0  0
 26 61  1  0  0  0  0
 29 62  1  0  0  0  0
M  END
> <SourceTag>
A_80

> <Gold.Version>
5.2

> <Gold.Id.Protein>
6HGV|6HGV_protein|mol2

> <Gold.Goldscore.Fitness>
68.5685

> <Gold.Goldscore.Internal.Vdw>
-4.4694

> <Gold.Goldscore.Internal.Torsion>
-5.5666

> <Gold.Goldscore.External.Vdw>
52.8034

> <Gold.Goldscore.Internal.HBond>
0.0000

> <Gold.Goldscore.External.HBond>
0.0000

> <Gold.Goldscore.Internal.Correction>
-5.9998

> <Gold.Goldscore.Internal.Vdw.Weighted>
-4.4694

> <Gold.Goldscore.Internal.Torsion.Weighted>
-5.5666

> <Gold.Goldscore.External.Vdw.Weighted>
72.6046

> <Gold.Goldscore.Internal.HBond.Weighted>
0.0000

> <Gold.Goldscore.External.HBond.Weighted>
0.0000

> <Gold.Goldscore.Internal.Correction.Weighted>
-5.9998

> <Gold.Protein.RotatedTorsions>
[ 3781 1176 1175 1172 ] final  166.19 input   60.00 | X-H torsion
[ 3847 1247 1246 1244 ] final  138.01 input   60.00 | X-H torsion
[ 4507 1931 1930 1928 ] final  -97.95 input   60.00 | X-H torsion
[ 3677 1070 1069 1066 ] final -107.56 input   60.00 | X-H torsion
[ 3525  925  924  922 ] final   25.44 input   59.99 | X-H torsion
[ 4531 1957 1955 1953 ] final   93.99 input   60.00 | X-H torsion

> <Gold.Protein.ActiveResidues>
 PHE267  PRO268  MET310  ASP335  TRP336  MET339  TYR343  THR360  PRO361  ILE363 
 PRO371  SER374  ILE375  ASN378  PHE381  TYR383  GLN384  PHE387  LEU408  LEU417 
 MET419  LEU428  TYR466  MET469  ASN472  ASP496  VAL498  LEU499  MET503  HIS524 
 TRP525 

> <Gold.Protein.RotatedAtoms>
   -3.3076  -29.6469  -30.7511 H   0  0  0  0  0  0  0  0  0  0  0  0  # atno 3525 bound_to 925 
  -11.6272  -23.6974  -31.4376 H   0  0  0  0  0  0  0  0  0  0  0  0  # atno 3677 bound_to 1070
   -9.3451  -36.6365  -32.6819 H   0  0  0  0  0  0  0  0  0  0  0  0  # atno 3781 bound_to 1176
  -14.3281  -28.0141  -37.8665 H   0  0  0  0  0  0  0  0  0  0  0  0  # atno 3847 bound_to 1247
  -13.6334  -24.7959  -40.3473 H   0  0  0  0  0  0  0  0  0  0  0  0  # atno 4507 bound_to 1931
   -2.7522  -33.8654  -36.7325 H   0  0  0  0  0  0  0  0  0  0  0  0  # atno 4531 bound_to 1957
  -10.7264  -37.4480  -32.9676 LP  0  0  0  0  0  0  0  0  0  0  0  0  # atno 5205 bound_to 1176
  -10.0441  -36.5503  -34.1489 LP  0  0  0  0  0  0  0  0  0  0  0  0  # atno 5206 bound_to 1176
  -15.4650  -28.8788  -37.0868 LP  0  0  0  0  0  0  0  0  0  0  0  0  # atno 5215 bound_to 1247
  -15.7774  -27.3447  -37.5510 LP  0  0  0  0  0  0  0  0  0  0  0  0  # atno 5216 bound_to 1247
  -12.5392  -23.7964  -39.6752 LP  0  0  0  0  0  0  0  0  0  0  0  0  # atno 5217 bound_to 1931
  -13.0181  -25.1403  -38.8807 LP  0  0  0  0  0  0  0  0  0  0  0  0  # atno 5218 bound_to 1931
  -11.4187  -22.2519  -30.7198 LP  0  0  0  0  0  0  0  0  0  0  0  0  # atno 5224 bound_to 1070
  -12.8104  -23.0793  -30.5068 LP  0  0  0  0  0  0  0  0  0  0  0  0  # atno 5225 bound_to 1070

$$$$
A_116|SEH_inhibs_minimized|sdf|9|dock9
  -GOLD-   41821 9 83D 1   1.00000     0.00000

 48 49  0  0  0  0  0  0  0  0  1 V2000
  -13.2489  -25.8106  -36.9400 C   0  0  0  0  0  0  0  0  0  0  0  0
  -18.6170  -23.8465  -37.5689 C   0  0  0  0  0  0  0  0  0  0  0  0
  -17.8675  -22.8341  -38.4284 C   0  0  0  0  0  0  0  0  0  0  0  0
  -18.0932  -25.2800  -37.6417 C   0  0  0  0  0  0  0  0  0  0  0  0
  -16.3615  -22.7553  -38.1822 C   0  0  0  0  0  0  0  0  0  0  0  0
  -16.7640  -25.4580  -36.9131 C   0  0  0  0  0  0  0  0  0  0  0  0
  -15.6117  -23.9739  -38.7183 C   0  0  0  0  0  0  0  0  0  0  0  0
  -11.2146  -27.6368  -35.8157 C   0  0  0  0  0  0  0  0  0  0  0  0
  -10.3068  -25.6382  -34.5751 C   0  0  0  0  0  0  0  0  0  0  0  0
  -11.8269  -28.1415  -34.5103 C   0  0  0  0  0  0  0  0  0  0  0  0
  -10.9464  -26.1726  -33.2955 C   0  0  0  0  0  0  0  0  0  0  0  0
  -15.5169  -25.1579  -37.7509 C   0  0  0  0  0  0  0  0  0  0  0  0
  -11.0378  -26.1153  -35.8331 C   0  0  0  0  0  0  0  0  0  0  0  0
  -10.2579  -29.8377  -32.0345 C   0  0  0  0  0  0  0  0  0  0  0  0
  -11.0143  -27.6616  -33.3550 N   0  0  0  0  0  0  0  0  0  0  0  0
  -14.3743  -24.9970  -36.8750 N   0  0  0  0  0  0  0  0  0  0  0  0
  -12.3045  -25.4377  -35.9870 N   0  0  0  0  0  0  0  0  0  0  0  0
  -13.1029  -26.7387  -37.7344 O   0  0  0  0  0  0  0  0  0  0  0  0
  -12.6993  -28.9207  -31.8742 O   0  0  0  0  0  0  0  0  0  0  0  0
  -10.8290  -27.6124  -30.7898 O   0  0  0  0  0  0  0  0  0  0  0  0
  -11.3358  -28.4396  -31.8618 S   0  0  0  0  0  0  0  0  0  0  0  0
  -18.6172  -23.5069  -36.5256 H   0  0  0  0  0  0  0  0  0  0  0  0
  -19.6670  -23.8466  -37.8873 H   0  0  0  0  0  0  0  0  0  0  0  0
  -18.0565  -23.0476  -39.4879 H   0  0  0  0  0  0  0  0  0  0  0  0
  -18.3004  -21.8440  -38.2373 H   0  0  0  0  0  0  0  0  0  0  0  0
  -18.8334  -25.9215  -37.1467 H   0  0  0  0  0  0  0  0  0  0  0  0
  -18.0287  -25.6251  -38.6800 H   0  0  0  0  0  0  0  0  0  0  0  0
  -15.9912  -21.8727  -38.7195 H   0  0  0  0  0  0  0  0  0  0  0  0
  -16.1452  -22.5850  -37.1215 H   0  0  0  0  0  0  0  0  0  0  0  0
  -16.7639  -24.8559  -35.9946 H   0  0  0  0  0  0  0  0  0  0  0  0
  -16.6910  -26.4997  -36.5715 H   0  0  0  0  0  0  0  0  0  0  0  0
  -16.0847  -24.3083  -39.6505 H   0  0  0  0  0  0  0  0  0  0  0  0
  -14.5962  -23.6623  -38.9981 H   0  0  0  0  0  0  0  0  0  0  0  0
  -10.2289  -28.1030  -35.9443 H   0  0  0  0  0  0  0  0  0  0  0  0
  -11.8340  -27.9625  -36.6600 H   0  0  0  0  0  0  0  0  0  0  0  0
  -10.2769  -24.5427  -34.5392 H   0  0  0  0  0  0  0  0  0  0  0  0
   -9.2661  -25.9853  -34.6213 H   0  0  0  0  0  0  0  0  0  0  0  0
  -12.8614  -27.7962  -34.4039 H   0  0  0  0  0  0  0  0  0  0  0  0
  -11.8310  -29.2371  -34.5223 H   0  0  0  0  0  0  0  0  0  0  0  0
  -10.3314  -25.8706  -32.4408 H   0  0  0  0  0  0  0  0  0  0  0  0
  -11.9524  -25.7608  -33.1568 H   0  0  0  0  0  0  0  0  0  0  0  0
  -15.2847  -26.0455  -38.3532 H   0  0  0  0  0  0  0  0  0  0  0  0
  -10.4478  -25.8332  -36.7168 H   0  0  0  0  0  0  0  0  0  0  0  0
  -10.6587  -30.4875  -32.8140 H   0  0  0  0  0  0  0  0  0  0  0  0
   -9.2663  -29.4759  -32.3107 H   0  0  0  0  0  0  0  0  0  0  0  0
  -10.2209  -30.3640  -31.0795 H   0  0  0  0  0  0  0  0  0  0  0  0
  -14.3964  -24.2572  -36.1828 H   0  0  0  0  0  0  0  0  0  0  0  0
  -12.4918  -24.6282  -35.4037 H   0  0  0  0  0  0  0  0  0  0  0  0
  1 16  1  0  0  0  0
  1 17  1  0  0  0  0
  1 18  2  0  0  0  0
  2  3  1  0  0  0  0
  2  4  1  0  0  0  0
  3  5  1  0  0  0  0
  4  6  1  0  0  0  0
  5  7  1  0  0  0  0
  6 12  1  0  0  0  0
  7 12  1  0  0  0  0
  8 10  1  0  0  0  0
  8 13  1  0  0  0  0
  9 11  1  0  0  0  0
  9 13  1  0  0  0  0
 10 15  1  0  0  0  0
 11 15  1  0  0  0  0
 12 16  1  0  0  0  0
 13 17  1  0  0  0  0
 14 21  1  0  0  0  0
 15 21  1  0  0  0  0
 19 21  2  0  0  0  0
 20 21  2  0  0  0  0
  2 22  1  0  0  0  0
  2 23  1  0  0  0  0
  3 24  1  0  0  0  0
  3 25  1  0  0  0  0
  4 26  1  0  0  0  0
  4 27  1  0  0  0  0
  5 28  1  0  0  0  0
  5 29  1  0  0  0  0
  6 30  1  0  0  0  0
  6 31  1  0  0  0  0
  7 32  1  0  0  0  0
  7 33  1  0  0  0  0
  8 34  1  0  0  0  0
  8 35  1  0  0  0  0
  9 36  1  0  0  0  0
  9 37  1  0  0  0  0
 10 38  1  0  0  0  0
 10 39  1  0  0  0  0
 11 40  1  0  0  0  0
 11 41  1  0  0  0  0
 12 42  1  0  0  0  0
 13 43  1  0  0  0  0
 14 44  1  0  0  0  0
 14 45  1  0  0  0  0
 14 46  1  0  0  0  0
 16 47  1  0  0  0  0
 17 48  1  0  0  0  0
M  END
> <Name>
A_116

> <SourceTag>
A_116

> <Gold.Version>
5.2

> <Gold.Id.Protein>
6HGV|6HGV_protein|mol2

> <Gold.Goldscore.Fitness>
52.8493

> <Gold.Goldscore.Internal.Vdw>
-4.9807

> <Gold.Goldscore.Internal.Torsion>
-2.1067

> <Gold.Goldscore.External.Vdw>
38.3480

> <Gold.Goldscore.Internal.HBond>
0.0000

> <Gold.Goldscore.External.HBond>
6.1449

> <Gold.Goldscore.Internal.Correction>
-1.0633

> <Gold.Goldscore.Hbonds>
donor molecule, donor type, donor heavy atom, donor atom, acceptor molecule, acceptor atom, score
      P1  H  1247  3847       L1    18  0.21
      L1  H    16    47       P1   853  0.85
      L1  H    17    48       P1   853  0.11

> <Gold.Goldscore.Internal.Vdw.Weighted>
-4.9807

> <Gold.Goldscore.Internal.Torsion.Weighted>
-2.1067

> <Gold.Goldscore.External.Vdw.Weighted>
52.7285

> <Gold.Goldscore.Internal.HBond.Weighted>
0.0000

> <Gold.Goldscore.External.HBond.Weighted>
6.1449

> <Gold.Goldscore.Internal.Correction.Weighted>
-1.0633

> <Gold.Protein.RotatedTorsions>
[ 3781 1176 1175 1172 ] final   29.25 input   60.00 | X-H torsion
[ 3847 1247 1246 1244 ] final  139.43 input   60.00 | X-H torsion
[ 4507 1931 1930 1928 ] final  100.20 input   60.00 | X-H torsion
[ 3677 1070 1069 1066 ] final  -98.82 input   60.00 | X-H torsion
[ 3525  925  924  922 ] final   52.07 input   59.99 | X-H torsion
[ 4531 1957 1955 1953 ] final  -52.44 input   60.00 | X-H torsion

> <Gold.Protein.ActiveResidues>
 PHE267  PRO268  MET310  ASP335  TRP336  MET339  TYR343  THR360  PRO361  ILE363 
 PRO371  SER374  ILE375  ASN378  PHE381  TYR383  GLN384  PHE387  LEU408  LEU417 
 MET419  LEU428  TYR466  MET469  ASN472  ASP496  VAL498  LEU499  MET503  HIS524 
 TRP525 

> <Gold.Protein.RotatedAtoms>
   -2.9238  -29.8034  -30.8700 H   0  0  0  0  0  0  0  0  0  0  0  0  # atno 3525 bound_to 925 
  -11.7521  -23.7615  -31.4126 H   0  0  0  0  0  0  0  0  0  0  0  0  # atno 3677 bound_to 1070
  -10.8080  -37.4075  -33.2292 H   0  0  0  0  0  0  0  0  0  0  0  0  # atno 3781 bound_to 1176
  -14.3328  -27.9924  -37.8729 H   0  0  0  0  0  0  0  0  0  0  0  0  # atno 3847 bound_to 1247
  -12.4369  -24.1326  -39.1035 H   0  0  0  0  0  0  0  0  0  0  0  0  # atno 4507 bound_to 1931
   -2.0994  -32.1984  -36.8278 H   0  0  0  0  0  0  0  0  0  0  0  0  # atno 4531 bound_to 1957
   -9.8107  -36.4273  -34.0616 LP  0  0  0  0  0  0  0  0  0  0  0  0  # atno 5205 bound_to 1176
   -9.4866  -36.7945  -32.5038 LP  0  0  0  0  0  0  0  0  0  0  0  0  # atno 5206 bound_to 1176
  -15.4441  -28.8881  -37.0914 LP  0  0  0  0  0  0  0  0  0  0  0  0  # atno 5215 bound_to 1247
  -15.7935  -27.3573  -37.5399 LP  0  0  0  0  0  0  0  0  0  0  0  0  # atno 5216 bound_to 1247
  -13.4539  -25.3819  -39.3338 LP  0  0  0  0  0  0  0  0  0  0  0  0  # atno 5217 bound_to 1931
  -13.3084  -24.2228  -40.4748 LP  0  0  0  0  0  0  0  0  0  0  0  0  # atno 5218 bound_to 1931
  -11.3211  -22.3152  -30.8039 LP  0  0  0  0  0  0  0  0  0  0  0  0  # atno 5224 bound_to 1070
  -12.7822  -22.9515  -30.4478 LP  0  0  0  0  0  0  0  0  0  0  0  0  # atno 5225 bound_to 1070

$$$$
A_95|SEH_inhibs_minimized|sdf|55|dock7
  -GOLD-   4182110443D 1   1.00000     0.00000

 41 43  0  0  0  0  0  0  0  0  1 V2000
  -19.5032  -24.0026  -40.0110 C   0  0  0  0  0  0  0  0  0  0  0  0
  -20.5343  -23.8584  -39.0876 C   0  0  0  0  0  0  0  0  0  0  0  0
  -18.2364  -24.4046  -39.5865 C   0  0  0  0  0  0  0  0  0  0  0  0
  -20.3026  -24.1155  -37.7360 C   0  0  0  0  0  0  0  0  0  0  0  0
  -16.7165  -25.0733  -37.7851 C   0  0  0  0  0  0  0  0  0  0  0  0
  -18.7826  -24.7841  -35.9344 C   0  0  0  0  0  0  0  0  0  0  0  0
  -17.9853  -24.6677  -38.2301 C   0  0  0  0  0  0  0  0  0  0  0  0
  -19.0339  -24.5210  -37.2910 C   0  0  0  0  0  0  0  0  0  0  0  0
  -16.4848  -25.3303  -36.4336 C   0  0  0  0  0  0  0  0  0  0  0  0
  -17.5158  -25.1860  -35.5100 C   0  0  0  0  0  0  0  0  0  0  0  0
  -13.9610  -25.3429  -36.5394 C   0  0  0  0  0  0  0  0  0  0  0  0
   -9.9786  -26.9142  -33.8896 C   0  0  0  0  0  0  0  0  0  0  0  0
  -10.7061  -25.5793  -33.7518 C   0  0  0  0  0  0  0  0  0  0  0  0
  -10.6339  -27.8149  -34.9332 C   0  0  0  0  0  0  0  0  0  0  0  0
  -10.8484  -24.8740  -35.1013 C   0  0  0  0  0  0  0  0  0  0  0  0
  -10.7761  -27.1044  -36.2800 C   0  0  0  0  0  0  0  0  0  0  0  0
  -11.5053  -25.7588  -36.1692 C   0  0  0  0  0  0  0  0  0  0  0  0
  -15.1959  -25.7380  -36.0175 N   0  0  0  0  0  0  0  0  0  0  0  0
  -12.9187  -25.9729  -35.8509 N   0  0  0  0  0  0  0  0  0  0  0  0
  -13.7749  -24.5586  -37.4668 O   0  0  0  0  0  0  0  0  0  0  0  0
  -17.3095  -25.4328  -34.1853 O   0  0  0  0  0  0  0  0  0  0  0  0
  -19.6845  -23.8025  -41.0630 H   0  0  0  0  0  0  0  0  0  0  0  0
  -21.5203  -23.5459  -39.4188 H   0  0  0  0  0  0  0  0  0  0  0  0
  -17.4449  -24.5099  -40.3258 H   0  0  0  0  0  0  0  0  0  0  0  0
  -21.1233  -23.9964  -37.0316 H   0  0  0  0  0  0  0  0  0  0  0  0
  -15.9026  -25.1889  -38.4993 H   0  0  0  0  0  0  0  0  0  0  0  0
  -19.5787  -24.6754  -35.2002 H   0  0  0  0  0  0  0  0  0  0  0  0
   -8.9310  -26.7366  -34.1615 H   0  0  0  0  0  0  0  0  0  0  0  0
   -9.9721  -27.4270  -32.9187 H   0  0  0  0  0  0  0  0  0  0  0  0
  -11.6977  -25.7428  -33.3162 H   0  0  0  0  0  0  0  0  0  0  0  0
  -10.1543  -24.9320  -33.0597 H   0  0  0  0  0  0  0  0  0  0  0  0
  -10.0324  -28.7226  -35.0623 H   0  0  0  0  0  0  0  0  0  0  0  0
  -11.6207  -28.1320  -34.5790 H   0  0  0  0  0  0  0  0  0  0  0  0
  -11.4373  -23.9496  -34.9691 H   0  0  0  0  0  0  0  0  0  0  0  0
   -9.8539  -24.5450  -35.4469 H   0  0  0  0  0  0  0  0  0  0  0  0
   -9.7757  -26.9534  -36.7195 H   0  0  0  0  0  0  0  0  0  0  0  0
  -11.3133  -27.7629  -36.9848 H   0  0  0  0  0  0  0  0  0  0  0  0
  -11.4867  -25.2505  -37.1299 H   0  0  0  0  0  0  0  0  0  0  0  0
  -15.1697  -26.3980  -35.2442 H   0  0  0  0  0  0  0  0  0  0  0  0
  -13.1533  -26.6087  -35.0946 H   0  0  0  0  0  0  0  0  0  0  0  0
  -18.1538  -25.4239  -33.7082 H   0  0  0  0  0  0  0  0  0  0  0  0
  1  2  1  0  0  0  0
  1  3  2  0  0  0  0
  2  4  2  0  0  0  0
  3  7  1  0  0  0  0
  4  8  1  0  0  0  0
  5  7  1  0  0  0  0
  5  9  2  0  0  0  0
  6  8  1  0  0  0  0
  6 10  2  0  0  0  0
  7  8  2  0  0  0  0
  9 10  1  0  0  0  0
  9 18  1  0  0  0  0
 10 21  1  0  0  0  0
 11 18  1  0  0  0  0
 11 19  1  0  0  0  0
 11 20  2  0  0  0  0
 12 13  1  0  0  0  0
 12 14  1  0  0  0  0
 13 15  1  0  0  0  0
 14 16  1  0  0  0  0
 15 17  1  0  0  0  0
 16 17  1  0  0  0  0
 17 19  1  0  0  0  0
  1 22  1  0  0  0  0
  2 23  1  0  0  0  0
  3 24  1  0  0  0  0
  4 25  1  0  0  0  0
  5 26  1  0  0  0  0
  6 27  1  0  0  0  0
 12 28  1  0  0  0  0
 12 29  1  0  0  0  0
 13 30  1  0  0  0  0
 13 31  1  0  0  0  0
 14 32  1  0  0  0  0
 14 33  1  0  0  0  0
 15 34  1  0  0  0  0
 15 35  1  0  0  0  0
 16 36  1  0  0  0  0
 16 37  1  0  0  0  0
 17 38  1  0  0  0  0
 18 39  1  0  0  0  0
 19 40  1  0  0  0  0
 21 41  1  0  0  0  0
M  END
> <Name>
A_95

> <SourceTag>
A_95

> <Gold.Version>
5.2

> <Gold.Id.Protein>
6HGV|6HGV_protein|mol2

> <Gold.Goldscore.Fitness>
69.1562

> <Gold.Goldscore.Internal.Vdw>
-3.6556

> <Gold.Goldscore.Internal.Torsion>
-2.7053

> <Gold.Goldscore.External.Vdw>
46.6932

> <Gold.Goldscore.Internal.HBond>
0.0000

> <Gold.Goldscore.External.HBond>
6.1553

> <Gold.Goldscore.Internal.Correction>
-5.1587

> <Gold.Goldscore.Hbonds>
donor molecule, donor type, donor heavy atom, donor atom, acceptor molecule, acceptor atom, score
      P1  H  1931  4507       L1    20  0.18
      L1  H    21    41       P1  2185  0.97

> <Gold.Goldscore.Internal.Vdw.Weighted>
-3.6556

> <Gold.Goldscore.Internal.Torsion.Weighted>
-2.7053

> <Gold.Goldscore.External.Vdw.Weighted>
64.2032

> <Gold.Goldscore.Internal.HBond.Weighted>
0.0000

> <Gold.Goldscore.External.HBond.Weighted>
6.1553

> <Gold.Goldscore.Internal.Correction.Weighted>
-5.1587

> <Gold.Protein.RotatedTorsions>
[ 3781 1176 1175 1172 ] final  -75.96 input   60.00 | X-H torsion
[ 3847 1247 1246 1244 ] final  148.84 input   60.00 | X-H torsion
[ 4507 1931 1930 1928 ] final   24.68 input   60.00 | X-H torsion
[ 3677 1070 1069 1066 ] final  -79.14 input   60.00 | X-H torsion
[ 3525  925  924  922 ] final  114.48 input   59.99 | X-H torsion
[ 4531 1957 1955 1953 ] final    5.19 input   60.00 | X-H torsion

> <Gold.Protein.ActiveResidues>
 PHE267  PRO268  MET310  ASP335  TRP336  MET339  TYR343  THR360  PRO361  ILE363 
 PRO371  SER374  ILE375  ASN378  PHE381  TYR383  GLN384  PHE387  LEU408  LEU417 
 MET419  LEU428  TYR466  MET469  ASN472  ASP496  VAL498  LEU499  MET503  HIS524 
 TRP525 

> <Gold.Protein.RotatedAtoms>
   -2.1573  -30.1797  -30.4094 H   0  0  0  0  0  0  0  0  0  0  0  0  # atno 3525 bound_to 925 
  -12.0459  -23.8406  -31.3133 H   0  0  0  0  0  0  0  0  0  0  0  0  # atno 3677 bound_to 1070
  -10.0129  -36.5372  -34.1365 H   0  0  0  0  0  0  0  0  0  0  0  0  # atno 3781 bound_to 1176
  -14.3771  -27.8500  -37.9100 H   0  0  0  0  0  0  0  0  0  0  0  0  # atno 3847 bound_to 1247
  -12.9878  -25.1107  -38.8701 H   0  0  0  0  0  0  0  0  0  0  0  0  # atno 4507 bound_to 1931
   -2.9104  -32.5659  -36.6800 H   0  0  0  0  0  0  0  0  0  0  0  0  # atno 4531 bound_to 1957
   -9.3569  -36.6526  -32.6518 LP  0  0  0  0  0  0  0  0  0  0  0  0  # atno 5205 bound_to 1176
  -10.7412  -37.4458  -32.9998 LP  0  0  0  0  0  0  0  0  0  0  0  0  # atno 5206 bound_to 1176
  -15.3020  -28.9370  -37.1285 LP  0  0  0  0  0  0  0  0  0  0  0  0  # atno 5215 bound_to 1247
  -15.8910  -27.4517  -37.4655 LP  0  0  0  0  0  0  0  0  0  0  0  0  # atno 5216 bound_to 1247
  -13.6513  -24.8316  -40.3295 LP  0  0  0  0  0  0  0  0  0  0  0  0  # atno 5217 bound_to 1931
  -12.5563  -23.7881  -39.7141 LP  0  0  0  0  0  0  0  0  0  0  0  0  # atno 5218 bound_to 1931
  -11.1575  -22.5142  -30.9976 LP  0  0  0  0  0  0  0  0  0  0  0  0  # atno 5224 bound_to 1070
  -12.6500  -22.6729  -30.3542 LP  0  0  0  0  0  0  0  0  0  0  0  0  # atno 5225 bound_to 1070

$$$$
A_70|SEH_inhibs_minimized|sdf|44|dock7
  -GOLD-   4182110263D 1   1.00000     0.00000

 41 42  0  0  0  0  0  0  0  0  1 V2000
  -16.1538  -24.4492  -40.0033 C   0  0  0  0  0  0  0  0  0  0  0  0
  -17.1867  -23.9786  -37.8705 C   0  0  0  0  0  0  0  0  0  0  0  0
  -18.4492  -23.7008  -39.9114 C   0  0  0  0  0  0  0  0  0  0  0  0
  -16.0771  -24.3850  -38.6121 C   0  0  0  0  0  0  0  0  0  0  0  0
  -17.3399  -24.1071  -40.6530 C   0  0  0  0  0  0  0  0  0  0  0  0
  -18.3726  -23.6365  -38.5202 C   0  0  0  0  0  0  0  0  0  0  0  0
   -8.8661  -27.2217  -34.9634 C   0  0  0  0  0  0  0  0  0  0  0  0
  -14.7188  -25.2280  -36.6559 C   0  0  0  0  0  0  0  0  0  0  0  0
  -12.4760  -27.4275  -35.2393 C   0  0  0  0  0  0  0  0  0  0  0  0
  -11.7305  -25.1060  -34.5730 C   0  0  0  0  0  0  0  0  0  0  0  0
  -11.1589  -27.6016  -35.9963 C   0  0  0  0  0  0  0  0  0  0  0  0
  -10.4264  -25.3384  -35.3361 C   0  0  0  0  0  0  0  0  0  0  0  0
  -12.8858  -25.9553  -35.1174 C   0  0  0  0  0  0  0  0  0  0  0  0
   -7.1992  -29.0169  -34.6400 C   0  0  0  0  0  0  0  0  0  0  0  0
   -8.5996  -28.6990  -35.1050 C   0  0  0  0  0  0  0  0  0  0  0  0
  -10.1069  -26.7650  -35.4070 N   0  0  0  0  0  0  0  0  0  0  0  0
  -14.8744  -24.7315  -37.9532 N   0  0  0  0  0  0  0  0  0  0  0  0
  -13.3655  -25.4443  -36.3807 N   0  0  0  0  0  0  0  0  0  0  0  0
   -7.9974  -26.4973  -34.4708 O   0  0  0  0  0  0  0  0  0  0  0  0
  -15.6151  -25.4542  -35.8465 O   0  0  0  0  0  0  0  0  0  0  0  0
  -17.4344  -24.1862  -42.3697 Cl  0  0  0  0  0  0  0  0  0  0  0  0
  -19.7411  -23.1341  -37.6056 Cl  0  0  0  0  0  0  0  0  0  0  0  0
  -15.2867  -24.7666  -40.5792 H   0  0  0  0  0  0  0  0  0  0  0  0
  -17.1238  -23.9292  -36.7852 H   0  0  0  0  0  0  0  0  0  0  0  0
  -19.3745  -23.4338  -40.4178 H   0  0  0  0  0  0  0  0  0  0  0  0
  -13.2634  -28.0084  -35.7341 H   0  0  0  0  0  0  0  0  0  0  0  0
  -12.3564  -27.8412  -34.2295 H   0  0  0  0  0  0  0  0  0  0  0  0
  -11.5698  -25.3729  -33.5203 H   0  0  0  0  0  0  0  0  0  0  0  0
  -11.9864  -24.0403  -34.5981 H   0  0  0  0  0  0  0  0  0  0  0  0
  -10.8855  -28.6581  -36.0023 H   0  0  0  0  0  0  0  0  0  0  0  0
  -11.2703  -27.2935  -37.0427 H   0  0  0  0  0  0  0  0  0  0  0  0
  -10.5090  -24.9700  -36.3655 H   0  0  0  0  0  0  0  0  0  0  0  0
   -9.6161  -24.7803  -34.8564 H   0  0  0  0  0  0  0  0  0  0  0  0
  -13.7399  -25.8799  -34.4293 H   0  0  0  0  0  0  0  0  0  0  0  0
   -6.4785  -28.3866  -35.1700 H   0  0  0  0  0  0  0  0  0  0  0  0
   -6.9453  -30.0653  -34.8305 H   0  0  0  0  0  0  0  0  0  0  0  0
   -7.0859  -28.8386  -33.5656 H   0  0  0  0  0  0  0  0  0  0  0  0
   -9.3433  -29.2287  -34.5114 H   0  0  0  0  0  0  0  0  0  0  0  0
   -8.7324  -28.9541  -36.1555 H   0  0  0  0  0  0  0  0  0  0  0  0
  -14.0191  -24.6040  -38.4884 H   0  0  0  0  0  0  0  0  0  0  0  0
  -12.6865  -25.2318  -37.1040 H   0  0  0  0  0  0  0  0  0  0  0  0
  1  4  2  0  0  0  0
  1  5  1  0  0  0  0
  2  4  1  0  0  0  0
  2  6  2  0  0  0  0
  3  5  2  0  0  0  0
  3  6  1  0  0  0  0
  4 17  1  0  0  0  0
  5 21  1  0  0  0  0
  6 22  1  0  0  0  0
  7 15  1  0  0  0  0
  7 16  1  0  0  0  0
  7 19  2  0  0  0  0
  8 17  1  0  0  0  0
  8 18  1  0  0  0  0
  8 20  2  0  0  0  0
  9 11  1  0  0  0  0
  9 13  1  0  0  0  0
 10 12  1  0  0  0  0
 10 13  1  0  0  0  0
 11 16  1  0  0  0  0
 12 16  1  0  0  0  0
 13 18  1  0  0  0  0
 14 15  1  0  0  0  0
  1 23  1  0  0  0  0
  2 24  1  0  0  0  0
  3 25  1  0  0  0  0
  9 26  1  0  0  0  0
  9 27  1  0  0  0  0
 10 28  1  0  0  0  0
 10 29  1  0  0  0  0
 11 30  1  0  0  0  0
 11 31  1  0  0  0  0
 12 32  1  0  0  0  0
 12 33  1  0  0  0  0
 13 34  1  0  0  0  0
 14 35  1  0  0  0  0
 14 36  1  0  0  0  0
 14 37  1  0  0  0  0
 15 38  1  0  0  0  0
 15 39  1  0  0  0  0
 17 40  1  0  0  0  0
 18 41  1  0  0  0  0
M  END
> <Name>
A_70

> <SourceTag>
A_70

> <Gold.Version>
5.2

> <Gold.Id.Protein>
6HGV|6HGV_protein|mol2

> <Gold.Goldscore.Fitness>
62.3100

> <Gold.Goldscore.Internal.Vdw>
-5.7788

> <Gold.Goldscore.Internal.Torsion>
-2.5578

> <Gold.Goldscore.External.Vdw>
44.7430

> <Gold.Goldscore.Internal.HBond>
0.0000

> <Gold.Goldscore.External.HBond>
1.6928

> <Gold.Goldscore.Internal.Correction>
-7.4322

> <Gold.Goldscore.Hbonds>
donor molecule, donor type, donor heavy atom, donor atom, acceptor molecule, acceptor atom, score
      L1  H    17    40       P1  1931  0.85

> <Gold.Goldscore.Internal.Vdw.Weighted>
-5.7788

> <Gold.Goldscore.Internal.Torsion.Weighted>
-2.5578

> <Gold.Goldscore.External.Vdw.Weighted>
61.5216

> <Gold.Goldscore.Internal.HBond.Weighted>
0.0000

> <Gold.Goldscore.External.HBond.Weighted>
1.6928

> <Gold.Goldscore.Internal.Correction.Weighted>
-7.4322

> <Gold.Protein.RotatedTorsions>
[ 3781 1176 1175 1172 ] final  145.60 input   60.00 | X-H torsion
[ 3847 1247 1246 1244 ] final  -97.50 input   60.00 | X-H torsion
[ 4507 1931 1930 1928 ] final  168.67 input   60.00 | X-H torsion
[ 3677 1070 1069 1066 ] final -108.65 input   60.00 | X-H torsion
[ 3525  925  924  922 ] final   -3.59 input   59.99 | X-H torsion
[ 4531 1957 1955 1953 ] final -135.04 input   60.00 | X-H torsion

> <Gold.Protein.ActiveResidues>
 PHE267  PRO268  MET310  ASP335  TRP336  MET339  TYR343  THR360  PRO361  ILE363 
 PRO371  SER374  ILE375  ASN378  PHE381  TYR383  GLN384  PHE387  LEU408  LEU417 
 MET419  LEU428  TYR466  MET469  ASN472  ASP496  VAL498  LEU499  MET503  HIS524 
 TRP525 

> <Gold.Protein.RotatedAtoms>
   -3.6284  -29.5367  -30.4268 H   0  0  0  0  0  0  0  0  0  0  0  0  # atno 3525 bound_to 925 
  -11.6121  -23.6883  -31.4398 H   0  0  0  0  0  0  0  0  0  0  0  0  # atno 3677 bound_to 1070
   -9.5268  -36.8330  -32.4810 H   0  0  0  0  0  0  0  0  0  0  0  0  # atno 3781 bound_to 1176
  -15.8236  -27.3917  -37.5176 H   0  0  0  0  0  0  0  0  0  0  0  0  # atno 3847 bound_to 1247
  -12.7561  -23.7969  -40.0495 H   0  0  0  0  0  0  0  0  0  0  0  0  # atno 4507 bound_to 1931
   -1.2601  -33.0886  -37.0028 H   0  0  0  0  0  0  0  0  0  0  0  0  # atno 4531 bound_to 1957
  -10.8250  -37.3947  -33.2854 LP  0  0  0  0  0  0  0  0  0  0  0  0  # atno 5205 bound_to 1176
   -9.7625  -36.4057  -34.0334 LP  0  0  0  0  0  0  0  0  0  0  0  0  # atno 5206 bound_to 1176
  -14.3380  -27.9437  -37.8868 LP  0  0  0  0  0  0  0  0  0  0  0  0  # atno 5215 bound_to 1247
  -15.3983  -28.9065  -37.1023 LP  0  0  0  0  0  0  0  0  0  0  0  0  # atno 5216 bound_to 1247
  -12.7386  -24.8221  -38.7859 LP  0  0  0  0  0  0  0  0  0  0  0  0  # atno 5217 bound_to 1931
  -13.7022  -25.1207  -40.0700 LP  0  0  0  0  0  0  0  0  0  0  0  0  # atno 5218 bound_to 1931
  -11.4319  -22.2452  -30.7095 LP  0  0  0  0  0  0  0  0  0  0  0  0  # atno 5224 bound_to 1070
  -12.8125  -23.0953  -30.5149 LP  0  0  0  0  0  0  0  0  0  0  0  0  # atno 5225 bound_to 1070

$$$$
A_82|SEH_inhibs_minimized|sdf|50|dock1
  -GOLD-   4182110383D 1   1.00000     0.00000

 50 53  0  0  0  0  0  0  0  0  1 V2000
  -18.1925  -24.2809  -41.8030 C   0  0  0  0  0  0  0  0  0  0  0  0
   -9.6715  -30.3543  -30.7143 C   0  0  0  0  0  0  0  0  0  0  0  0
  -16.8557  -24.5087  -41.4762 C   0  0  0  0  0  0  0  0  0  0  0  0
  -19.1240  -24.0301  -40.7955 C   0  0  0  0  0  0  0  0  0  0  0  0
   -9.0909  -30.4034  -31.9814 C   0  0  0  0  0  0  0  0  0  0  0  0
  -10.6219  -29.3766  -30.4197 C   0  0  0  0  0  0  0  0  0  0  0  0
  -16.4505  -24.4854  -40.1416 C   0  0  0  0  0  0  0  0  0  0  0  0
  -18.7187  -24.0068  -39.4610 C   0  0  0  0  0  0  0  0  0  0  0  0
   -9.4608  -29.4748  -32.9544 C   0  0  0  0  0  0  0  0  0  0  0  0
  -10.9917  -28.4481  -31.3928 C   0  0  0  0  0  0  0  0  0  0  0  0
  -17.3820  -24.2345  -39.1341 C   0  0  0  0  0  0  0  0  0  0  0  0
  -10.4111  -28.4971  -32.6600 C   0  0  0  0  0  0  0  0  0  0  0  0
  -13.9570  -25.6195  -36.5948 C   0  0  0  0  0  0  0  0  0  0  0  0
  -11.2808  -27.1210  -36.0120 C   0  0  0  0  0  0  0  0  0  0  0  0
  -10.9058  -25.2285  -34.4077 C   0  0  0  0  0  0  0  0  0  0  0  0
  -17.7433  -24.9807  -36.6875 C   0  0  0  0  0  0  0  0  0  0  0  0
  -11.4677  -28.0759  -34.8317 C   0  0  0  0  0  0  0  0  0  0  0  0
  -11.1052  -26.1916  -33.2358 C   0  0  0  0  0  0  0  0  0  0  0  0
  -16.9510  -24.2099  -37.7154 C   0  0  1  0  0  0  0  0  0  0  0  0
  -11.6456  -25.6760  -35.6680 C   0  0  0  0  0  0  0  0  0  0  0  0
  -16.3837  -25.4692  -37.0915 C   0  0  1  0  0  0  0  0  0  0  0  0
  -10.7823  -27.5648  -33.6368 N   0  0  0  0  0  0  0  0  0  0  0  0
  -13.0724  -25.5049  -35.5270 N   0  0  0  0  0  0  0  0  0  0  0  0
  -15.2722  -25.4087  -36.1868 N   0  0  0  0  0  0  0  0  0  0  0  0
  -13.6247  -25.8742  -37.7518 O   0  0  0  0  0  0  0  0  0  0  0  0
  -18.5080  -24.2987  -42.8419 H   0  0  0  0  0  0  0  0  0  0  0  0
   -9.3837  -31.0774  -29.9566 H   0  0  0  0  0  0  0  0  0  0  0  0
  -16.1306  -24.7047  -42.2605 H   0  0  0  0  0  0  0  0  0  0  0  0
  -20.1646  -23.8520  -41.0498 H   0  0  0  0  0  0  0  0  0  0  0  0
   -8.3509  -31.1647  -32.2106 H   0  0  0  0  0  0  0  0  0  0  0  0
  -11.0739  -29.3385  -29.4329 H   0  0  0  0  0  0  0  0  0  0  0  0
  -15.4068  -24.6643  -39.8972 H   0  0  0  0  0  0  0  0  0  0  0  0
  -19.4521  -23.8103  -38.6834 H   0  0  0  0  0  0  0  0  0  0  0  0
   -9.0019  -29.5221  -33.9387 H   0  0  0  0  0  0  0  0  0  0  0  0
  -11.7333  -27.6906  -31.1526 H   0  0  0  0  0  0  0  0  0  0  0  0
  -10.2278  -27.1500  -36.3219 H   0  0  0  0  0  0  0  0  0  0  0  0
  -11.8723  -27.4763  -36.8643 H   0  0  0  0  0  0  0  0  0  0  0  0
  -11.2240  -24.2224  -34.1094 H   0  0  0  0  0  0  0  0  0  0  0  0
   -9.8329  -25.1689  -34.6335 H   0  0  0  0  0  0  0  0  0  0  0  0
  -17.8612  -24.5322  -35.7076 H   0  0  0  0  0  0  0  0  0  0  0  0
  -18.6018  -25.5567  -37.0128 H   0  0  0  0  0  0  0  0  0  0  0  0
  -12.5364  -28.2077  -34.6191 H   0  0  0  0  0  0  0  0  0  0  0  0
  -11.0641  -29.0578  -35.1092 H   0  0  0  0  0  0  0  0  0  0  0  0
  -10.4566  -25.8749  -32.4092 H   0  0  0  0  0  0  0  0  0  0  0  0
  -12.1416  -26.1408  -32.8783 H   0  0  0  0  0  0  0  0  0  0  0  0
  -16.5296  -23.2684  -37.3734 H   0  0  0  0  0  0  0  0  0  0  0  0
  -11.3531  -25.0236  -36.5033 H   0  0  0  0  0  0  0  0  0  0  0  0
  -16.3561  -26.3649  -37.7037 H   0  0  0  0  0  0  0  0  0  0  0  0
  -13.4465  -25.2915  -34.6080 H   0  0  0  0  0  0  0  0  0  0  0  0
  -15.4515  -25.2037  -35.2083 H   0  0  0  0  0  0  0  0  0  0  0  0
  1  3  2  0  0  0  0
  1  4  1  0  0  0  0
  2  5  2  0  0  0  0
  2  6  1  0  0  0  0
  3  7  1  0  0  0  0
  4  8  2  0  0  0  0
  5  9  1  0  0  0  0
  6 10  2  0  0  0  0
  7 11  2  0  0  0  0
  8 11  1  0  0  0  0
  9 12  2  0  0  0  0
 10 12  1  0  0  0  0
 11 19  1  0  0  0  0
 12 22  1  0  0  0  0
 13 23  1  0  0  0  0
 13 24  1  0  0  0  0
 13 25  2  0  0  0  0
 14 17  1  0  0  0  0
 14 20  1  0  0  0  0
 15 18  1  0  0  0  0
 15 20  1  0  0  0  0
 16 19  1  0  0  0  0
 16 21  1  0  0  0  0
 17 22  1  0  0  0  0
 18 22  1  0  0  0  0
 19 21  1  0  0  0  0
 20 23  1  0  0  0  0
 21 24  1  0  0  0  0
  1 26  1  0  0  0  0
  2 27  1  0  0  0  0
  3 28  1  0  0  0  0
  4 29  1  0  0  0  0
  5 30  1  0  0  0  0
  6 31  1  0  0  0  0
  7 32  1  0  0  0  0
  8 33  1  0  0  0  0
  9 34  1  0  0  0  0
 10 35  1  0  0  0  0
 14 36  1  0  0  0  0
 14 37  1  0  0  0  0
 15 38  1  0  0  0  0
 15 39  1  0  0  0  0
 16 40  1  0  0  0  0
 16 41  1  0  0  0  0
 17 42  1  0  0  0  0
 17 43  1  0  0  0  0
 18 44  1  0  0  0  0
 18 45  1  0  0  0  0
 19 46  1  0  0  0  0
 20 47  1  0  0  0  0
 21 48  1  0  0  0  0
 23 49  1  0  0  0  0
 24 50  1  0  0  0  0
M  END
> <Name>
A_82

> <SourceTag>
A_82

> <Gold.Version>
5.2

> <Gold.Id.Protein>
6HGV|6HGV_protein|mol2

> <Gold.Goldscore.Fitness>
65.5907

> <Gold.Goldscore.Internal.Vdw>
1.6810

> <Gold.Goldscore.Internal.Torsion>
-5.2301

> <Gold.Goldscore.External.Vdw>
47.2750

> <Gold.Goldscore.Internal.HBond>
0.0000

> <Gold.Goldscore.External.HBond>
1.3636

> <Gold.Goldscore.Internal.Correction>
-2.7731

> <Gold.Goldscore.Hbonds>
donor molecule, donor type, donor heavy atom, donor atom, acceptor molecule, acceptor atom, score
      P1  H  1247  3847       L1    25  0.14
      P1  H  1931  4507       L1    25  0.54

> <Gold.Goldscore.Internal.Vdw.Weighted>
1.6810

> <Gold.Goldscore.Internal.Torsion.Weighted>
-5.2301

> <Gold.Goldscore.External.Vdw.Weighted>
65.0031

> <Gold.Goldscore.Internal.HBond.Weighted>
0.0000

> <Gold.Goldscore.External.HBond.Weighted>
1.3636

> <Gold.Goldscore.Internal.Correction.Weighted>
-2.7731

> <Gold.Protein.RotatedTorsions>
[ 3781 1176 1175 1172 ] final   66.85 input   60.00 | X-H torsion
[ 3847 1247 1246 1244 ] final  159.71 input   60.00 | X-H torsion
[ 4507 1931 1930 1928 ] final   19.99 input   60.00 | X-H torsion
[ 3677 1070 1069 1066 ] final  -83.54 input   60.00 | X-H torsion
[ 3525  925  924  922 ] final  -69.02 input   59.99 | X-H torsion
[ 4531 1957 1955 1953 ] final  107.02 input   60.00 | X-H torsion

> <Gold.Protein.ActiveResidues>
 PHE267  PRO268  MET310  ASP335  TRP336  MET339  TYR343  THR360  PRO361  ILE363 
 PRO371  SER374  ILE375  ASN378  PHE381  TYR383  GLN384  PHE387  LEU408  LEU417 
 MET419  LEU428  TYR466  MET469  ASN472  ASP496  VAL498  LEU499  MET503  HIS524 
 TRP525 

> <Gold.Protein.RotatedAtoms>
   -3.6440  -29.6222  -29.4187 H   0  0  0  0  0  0  0  0  0  0  0  0  # atno 3525 bound_to 925 
  -11.9799  -23.8312  -31.3403 H   0  0  0  0  0  0  0  0  0  0  0  0  # atno 3677 bound_to 1070
  -10.5342  -37.4261  -32.6917 H   0  0  0  0  0  0  0  0  0  0  0  0  # atno 3781 bound_to 1176
  -14.4554  -27.6935  -37.9392 H   0  0  0  0  0  0  0  0  0  0  0  0  # atno 3847 bound_to 1247
  -13.0395  -25.1579  -38.9015 H   0  0  0  0  0  0  0  0  0  0  0  0  # atno 4507 bound_to 1931
   -2.5752  -33.9775  -36.7681 H   0  0  0  0  0  0  0  0  0  0  0  0  # atno 4531 bound_to 1957
  -10.3258  -36.7374  -34.1512 LP  0  0  0  0  0  0  0  0  0  0  0  0  # atno 5205 bound_to 1176
   -9.2473  -36.4657  -32.9555 LP  0  0  0  0  0  0  0  0  0  0  0  0  # atno 5206 bound_to 1176
  -15.1344  -28.9647  -37.1836 LP  0  0  0  0  0  0  0  0  0  0  0  0  # atno 5215 bound_to 1247
  -15.9798  -27.5816  -37.3809 LP  0  0  0  0  0  0  0  0  0  0  0  0  # atno 5216 bound_to 1247
  -13.6288  -24.7681  -40.3674 LP  0  0  0  0  0  0  0  0  0  0  0  0  # atno 5217 bound_to 1931
  -12.5267  -23.8040  -39.6446 LP  0  0  0  0  0  0  0  0  0  0  0  0  # atno 5218 bound_to 1931
  -11.1865  -22.4637  -30.9546 LP  0  0  0  0  0  0  0  0  0  0  0  0  # atno 5224 bound_to 1070
  -12.6874  -22.7329  -30.3700 LP  0  0  0  0  0  0  0  0  0  0  0  0  # atno 5225 bound_to 1070

$$$$
A_118|SEH_inhibs_minimized|sdf|11|dock8
  -GOLD-   41821 9143D 1   1.00000     0.00000

 71 75  0  0  0  0  0  0  0  0  1 V2000
  -14.1809  -25.4784  -36.4534 C   0  0  0  0  0  0  0  0  0  0  0  0
  -11.4678  -25.8938  -33.8838 C   0  0  0  0  0  0  0  0  0  0  0  0
  -11.9235  -27.6050  -35.6905 C   0  0  0  0  0  0  0  0  0  0  0  0
  -10.1343  -25.5447  -34.5512 C   0  0  0  0  0  0  0  0  0  0  0  0
  -10.5913  -27.2541  -36.3590 C   0  0  0  0  0  0  0  0  0  0  0  0
  -18.1308  -25.1735  -39.1365 C   0  0  0  0  0  0  0  0  0  0  0  0
  -16.8274  -23.6847  -40.6773 C   0  0  0  0  0  0  0  0  0  0  0  0
  -18.0560  -22.7007  -38.7251 C   0  0  0  0  0  0  0  0  0  0  0  0
  -15.6244  -25.2510  -39.1322 C   0  0  0  0  0  0  0  0  0  0  0  0
  -16.8546  -24.2661  -37.1781 C   0  0  0  0  0  0  0  0  0  0  0  0
  -15.5494  -22.7744  -38.7209 C   0  0  0  0  0  0  0  0  0  0  0  0
   -4.3386  -29.6193  -33.6982 C   0  0  0  0  0  0  0  0  0  0  0  0
   -4.5167  -31.6749  -34.9398 C   0  0  0  0  0  0  0  0  0  0  0  0
   -3.2865  -30.2793  -32.8115 C   0  0  0  0  0  0  0  0  0  0  0  0
   -3.4612  -32.2867  -34.0232 C   0  0  0  0  0  0  0  0  0  0  0  0
  -16.8720  -25.0721  -40.0144 C   0  0  0  0  0  0  0  0  0  0  0  0
  -18.1072  -24.0830  -38.0524 C   0  0  0  0  0  0  0  0  0  0  0  0
  -16.7970  -22.5861  -39.6013 C   0  0  0  0  0  0  0  0  0  0  0  0
  -12.4969  -26.4382  -34.8798 C   0  0  2  0  0  0  0  0  0  0  0  0
   -9.5696  -26.7125  -35.3588 C   0  0  2  0  0  0  0  0  0  0  0  0
  -15.5768  -24.1597  -38.0398 C   0  0  0  0  0  0  0  0  0  0  0  0
   -7.2662  -29.1728  -34.3022 C   0  0  0  0  0  0  0  0  0  0  0  0
   -6.2741  -30.0280  -35.0791 C   0  0  0  0  0  0  0  0  0  0  0  0
   -8.4866  -28.7856  -35.1286 C   0  0  0  0  0  0  0  0  0  0  0  0
   -5.2637  -30.6368  -34.2163 N   0  0  0  0  0  0  0  0  0  0  0  0
  -12.9829  -25.3900  -35.7496 N   0  0  0  0  0  0  0  0  0  0  0  0
  -14.4041  -24.3330  -37.2108 N   0  0  0  0  0  0  0  0  0  0  0  0
  -14.9436  -26.4429  -36.4113 O   0  0  0  0  0  0  0  0  0  0  0  0
   -2.5731  -31.2764  -33.5439 O   0  0  0  0  0  0  0  0  0  0  0  0
   -9.1826  -27.7473  -34.4564 O   0  0  0  0  0  0  0  0  0  0  0  0
  -11.2920  -26.6471  -33.1053 H   0  0  0  0  0  0  0  0  0  0  0  0
  -11.8608  -25.0042  -33.3769 H   0  0  0  0  0  0  0  0  0  0  0  0
  -12.6388  -27.9242  -36.4582 H   0  0  0  0  0  0  0  0  0  0  0  0
  -11.7740  -28.4635  -35.0237 H   0  0  0  0  0  0  0  0  0  0  0  0
  -10.2712  -24.6782  -35.2090 H   0  0  0  0  0  0  0  0  0  0  0  0
   -9.4213  -25.2527  -33.7709 H   0  0  0  0  0  0  0  0  0  0  0  0
  -10.1980  -28.1548  -36.8448 H   0  0  0  0  0  0  0  0  0  0  0  0
  -10.7620  -26.5088  -37.1451 H   0  0  0  0  0  0  0  0  0  0  0  0
  -19.0292  -25.0656  -39.7566 H   0  0  0  0  0  0  0  0  0  0  0  0
  -18.1833  -26.1649  -38.6698 H   0  0  0  0  0  0  0  0  0  0  0  0
  -15.9418  -23.6047  -41.3195 H   0  0  0  0  0  0  0  0  0  0  0  0
  -17.7029  -23.5508  -41.3241 H   0  0  0  0  0  0  0  0  0  0  0  0
  -18.9533  -22.5495  -39.3378 H   0  0  0  0  0  0  0  0  0  0  0  0
  -18.0549  -21.9125  -37.9623 H   0  0  0  0  0  0  0  0  0  0  0  0
  -15.6335  -26.2487  -38.6739 H   0  0  0  0  0  0  0  0  0  0  0  0
  -14.7195  -25.2064  -39.7527 H   0  0  0  0  0  0  0  0  0  0  0  0
  -16.8408  -23.5083  -36.3836 H   0  0  0  0  0  0  0  0  0  0  0  0
  -16.8920  -25.2402  -36.6726 H   0  0  0  0  0  0  0  0  0  0  0  0
  -14.6429  -22.6691  -39.3314 H   0  0  0  0  0  0  0  0  0  0  0  0
  -15.5049  -21.9792  -37.9650 H   0  0  0  0  0  0  0  0  0  0  0  0
   -4.8850  -28.8783  -33.1083 H   0  0  0  0  0  0  0  0  0  0  0  0
   -3.8423  -29.1044  -34.5276 H   0  0  0  0  0  0  0  0  0  0  0  0
   -4.0274  -31.2433  -35.8196 H   0  0  0  0  0  0  0  0  0  0  0  0
   -5.1953  -32.4645  -35.2736 H   0  0  0  0  0  0  0  0  0  0  0  0
   -2.5619  -29.5311  -32.4744 H   0  0  0  0  0  0  0  0  0  0  0  0
   -3.7362  -30.7317  -31.9194 H   0  0  0  0  0  0  0  0  0  0  0  0
   -3.9163  -32.8078  -33.1718 H   0  0  0  0  0  0  0  0  0  0  0  0
   -2.8645  -33.0180  -34.5775 H   0  0  0  0  0  0  0  0  0  0  0  0
  -16.8948  -25.8501  -40.7855 H   0  0  0  0  0  0  0  0  0  0  0  0
  -19.0065  -24.1592  -37.4311 H   0  0  0  0  0  0  0  0  0  0  0  0
  -16.7671  -21.6006  -40.0792 H   0  0  0  0  0  0  0  0  0  0  0  0
  -13.3763  -26.7877  -34.3270 H   0  0  0  0  0  0  0  0  0  0  0  0
   -8.6668  -26.3870  -35.8871 H   0  0  0  0  0  0  0  0  0  0  0  0
   -7.5992  -29.7221  -33.4127 H   0  0  0  0  0  0  0  0  0  0  0  0
   -6.7778  -28.2642  -33.9277 H   0  0  0  0  0  0  0  0  0  0  0  0
   -6.7973  -30.8461  -35.5840 H   0  0  0  0  0  0  0  0  0  0  0  0
   -5.7531  -29.4352  -35.8378 H   0  0  0  0  0  0  0  0  0  0  0  0
   -8.1960  -28.4207  -36.1186 H   0  0  0  0  0  0  0  0  0  0  0  0
   -9.1636  -29.6376  -35.2468 H   0  0  0  0  0  0  0  0  0  0  0  0
  -12.4234  -24.5490  -35.8518 H   0  0  0  0  0  0  0  0  0  0  0  0
  -13.7433  -23.5663  -37.1491 H   0  0  0  0  0  0  0  0  0  0  0  0
  1 26  1  0  0  0  0
  1 27  1  0  0  0  0
  1 28  2  0  0  0  0
  2  4  1  0  0  0  0
  2 19  1  0  0  0  0
  3  5  1  0  0  0  0
  3 19  1  0  0  0  0
  4 20  1  0  0  0  0
  5 20  1  0  0  0  0
  6 16  1  0  0  0  0
  6 17  1  0  0  0  0
  7 16  1  0  0  0  0
  7 18  1  0  0  0  0
  8 17  1  0  0  0  0
  8 18  1  0  0  0  0
  9 16  1  0  0  0  0
  9 21  1  0  0  0  0
 10 17  1  0  0  0  0
 10 21  1  0  0  0  0
 11 18  1  0  0  0  0
 11 21  1  0  0  0  0
 12 14  1  0  0  0  0
 12 25  1  0  0  0  0
 13 15  1  0  0  0  0
 13 25  1  0  0  0  0
 14 29  1  0  0  0  0
 15 29  1  0  0  0  0
 19 26  1  0  0  0  0
 20 30  1  0  0  0  0
 21 27  1  0  0  0  0
 22 23  1  0  0  0  0
 22 24  1  0  0  0  0
 23 25  1  0  0  0  0
 24 30  1  0  0  0  0
  2 31  1  0  0  0  0
  2 32  1  0  0  0  0
  3 33  1  0  0  0  0
  3 34  1  0  0  0  0
  4 35  1  0  0  0  0
  4 36  1  0  0  0  0
  5 37  1  0  0  0  0
  5 38  1  0  0  0  0
  6 39  1  0  0  0  0
  6 40  1  0  0  0  0
  7 41  1  0  0  0  0
  7 42  1  0  0  0  0
  8 43  1  0  0  0  0
  8 44  1  0  0  0  0
  9 45  1  0  0  0  0
  9 46  1  0  0  0  0
 10 47  1  0  0  0  0
 10 48  1  0  0  0  0
 11 49  1  0  0  0  0
 11 50  1  0  0  0  0
 12 51  1  0  0  0  0
 12 52  1  0  0  0  0
 13 53  1  0  0  0  0
 13 54  1  0  0  0  0
 14 55  1  0  0  0  0
 14 56  1  0  0  0  0
 15 57  1  0  0  0  0
 15 58  1  0  0  0  0
 16 59  1  0  0  0  0
 17 60  1  0  0  0  0
 18 61  1  0  0  0  0
 19 62  1  0  0  0  0
 20 63  1  0  0  0  0
 22 64  1  0  0  0  0
 22 65  1  0  0  0  0
 23 66  1  0  0  0  0
 23 67  1  0  0  0  0
 24 68  1  0  0  0  0
 24 69  1  0  0  0  0
 26 70  1  0  0  0  0
 27 71  1  0  0  0  0
M  END
> <SourceTag>
A_118

> <Gold.Version>
5.2

> <Gold.Id.Protein>
6HGV|6HGV_protein|mol2

> <Gold.Goldscore.Fitness>
69.5041

> <Gold.Goldscore.Internal.Vdw>
-12.2182

> <Gold.Goldscore.Internal.Torsion>
-5.0870

> <Gold.Goldscore.External.Vdw>
52.3201

> <Gold.Goldscore.Internal.HBond>
0.0000

> <Gold.Goldscore.External.HBond>
2.2500

> <Gold.Goldscore.Internal.Correction>
-12.6192

> <Gold.Goldscore.Hbonds>
donor molecule, donor type, donor heavy atom, donor atom, acceptor molecule, acceptor atom, score
      L1  H    27    71       P1   854  0.37

> <Gold.Goldscore.Internal.Vdw.Weighted>
-12.2182

> <Gold.Goldscore.Internal.Torsion.Weighted>
-5.0870

> <Gold.Goldscore.External.Vdw.Weighted>
71.9402

> <Gold.Goldscore.Internal.HBond.Weighted>
0.0000

> <Gold.Goldscore.External.HBond.Weighted>
2.2500

> <Gold.Goldscore.Internal.Correction.Weighted>
-12.6192

> <Gold.Protein.RotatedTorsions>
[ 3781 1176 1175 1172 ] final  -57.73 input   60.00 | X-H torsion
[ 3847 1247 1246 1244 ] final   89.21 input   60.00 | X-H torsion
[ 4507 1931 1930 1928 ] final   85.58 input   60.00 | X-H torsion
[ 3677 1070 1069 1066 ] final  -82.35 input   60.00 | X-H torsion
[ 3525  925  924  922 ] final  169.45 input   59.99 | X-H torsion
[ 4531 1957 1955 1953 ] final  -64.18 input   60.00 | X-H torsion

> <Gold.Protein.ActiveResidues>
 PHE267  PRO268  MET310  ASP335  TRP336  MET339  TYR343  THR360  PRO361  ILE363 
 PRO371  SER374  ILE375  ASN378  PHE381  TYR383  GLN384  PHE387  LEU408  LEU417 
 MET419  LEU428  TYR466  MET469  ASN472  ASP496  VAL498  LEU499  MET503  HIS524 
 TRP525 

> <Gold.Protein.RotatedAtoms>
   -2.1466  -30.2630  -29.5494 H   0  0  0  0  0  0  0  0  0  0  0  0  # atno 3525 bound_to 925 
  -11.9979  -23.8342  -31.3332 H   0  0  0  0  0  0  0  0  0  0  0  0  # atno 3677 bound_to 1070
  -10.2623  -36.6966  -34.1552 H   0  0  0  0  0  0  0  0  0  0  0  0  # atno 3781 bound_to 1176
  -14.4871  -28.6982  -37.5424 H   0  0  0  0  0  0  0  0  0  0  0  0  # atno 3847 bound_to 1247
  -12.4783  -24.3148  -38.9556 H   0  0  0  0  0  0  0  0  0  0  0  0  # atno 4507 bound_to 1931
   -1.9145  -32.2339  -36.8636 H   0  0  0  0  0  0  0  0  0  0  0  0  # atno 4531 bound_to 1957
   -9.2597  -36.4989  -32.8889 LP  0  0  0  0  0  0  0  0  0  0  0  0  # atno 5205 bound_to 1176
  -10.5871  -37.4388  -32.7440 LP  0  0  0  0  0  0  0  0  0  0  0  0  # atno 5206 bound_to 1176
  -16.0029  -28.3155  -37.0911 LP  0  0  0  0  0  0  0  0  0  0  0  0  # atno 5215 bound_to 1247
  -15.0793  -27.2191  -37.8731 LP  0  0  0  0  0  0  0  0  0  0  0  0  # atno 5216 bound_to 1247
  -13.5687  -25.3696  -39.5441 LP  0  0  0  0  0  0  0  0  0  0  0  0  # atno 5217 bound_to 1931
  -13.1519  -24.0516  -40.4133 LP  0  0  0  0  0  0  0  0  0  0  0  0  # atno 5218 bound_to 1931
  -11.1782  -22.4771  -30.9663 LP  0  0  0  0  0  0  0  0  0  0  0  0  # atno 5224 bound_to 1070
  -12.6776  -22.7164  -30.3654 LP  0  0  0  0  0  0  0  0  0  0  0  0  # atno 5225 bound_to 1070

$$$$
A_49|SEH_inhibs_minimized|sdf|35|dock3
  -GOLD-   4182110 03D 1   1.00000     0.00000

 47 48  0  0  0  0  0  0  0  0  1 V2000
   -8.8279  -26.9216  -34.7059 C   0  0  0  0  0  0  0  0  0  0  0  0
  -14.7732  -25.2862  -36.4504 C   0  0  0  0  0  0  0  0  0  0  0  0
  -17.4522  -24.3667  -41.3364 C   0  0  0  0  0  0  0  0  0  0  0  0
  -17.1137  -22.8921  -41.1460 C   0  0  0  0  0  0  0  0  0  0  0  0
  -16.6228  -25.3410  -40.5011 C   0  0  0  0  0  0  0  0  0  0  0  0
  -17.1790  -22.3876  -39.7053 C   0  0  0  0  0  0  0  0  0  0  0  0
  -16.9884  -25.3055  -39.0179 C   0  0  0  0  0  0  0  0  0  0  0  0
  -16.0185  -22.8927  -38.8523 C   0  0  0  0  0  0  0  0  0  0  0  0
  -12.3305  -27.6630  -35.2822 C   0  0  0  0  0  0  0  0  0  0  0  0
  -12.0212  -25.3426  -34.3285 C   0  0  0  0  0  0  0  0  0  0  0  0
  -10.9593  -27.5405  -35.9478 C   0  0  0  0  0  0  0  0  0  0  0  0
  -10.6529  -25.2788  -35.0071 C   0  0  0  0  0  0  0  0  0  0  0  0
  -16.2433  -24.2551  -38.1883 C   0  0  0  0  0  0  0  0  0  0  0  0
  -12.9849  -26.2972  -35.0445 C   0  0  0  0  0  0  0  0  0  0  0  0
   -8.3124  -28.3129  -34.9749 C   0  0  0  0  0  0  0  0  0  0  0  0
  -10.0980  -26.6199  -35.1965 N   0  0  0  0  0  0  0  0  0  0  0  0
  -14.9740  -24.7857  -37.7339 N   0  0  0  0  0  0  0  0  0  0  0  0
  -13.4651  -25.7297  -36.2832 N   0  0  0  0  0  0  0  0  0  0  0  0
   -8.1225  -26.1292  -34.0764 O   0  0  0  0  0  0  0  0  0  0  0  0
  -15.6389  -25.3314  -35.5773 O   0  0  0  0  0  0  0  0  0  0  0  0
  -18.5190  -24.5230  -41.1328 H   0  0  0  0  0  0  0  0  0  0  0  0
  -17.3076  -24.6116  -42.3963 H   0  0  0  0  0  0  0  0  0  0  0  0
  -16.1183  -22.6921  -41.5619 H   0  0  0  0  0  0  0  0  0  0  0  0
  -17.8172  -22.3045  -41.7493 H   0  0  0  0  0  0  0  0  0  0  0  0
  -16.8376  -26.3508  -40.8738 H   0  0  0  0  0  0  0  0  0  0  0  0
  -15.5503  -25.1757  -40.6540 H   0  0  0  0  0  0  0  0  0  0  0  0
  -17.1144  -21.2925  -39.7415 H   0  0  0  0  0  0  0  0  0  0  0  0
  -18.1452  -22.6258  -39.2463 H   0  0  0  0  0  0  0  0  0  0  0  0
  -18.0688  -25.1408  -38.9165 H   0  0  0  0  0  0  0  0  0  0  0  0
  -16.8034  -26.3000  -38.5907 H   0  0  0  0  0  0  0  0  0  0  0  0
  -15.0988  -22.9047  -39.4524 H   0  0  0  0  0  0  0  0  0  0  0  0
  -15.8293  -22.1619  -38.0541 H   0  0  0  0  0  0  0  0  0  0  0  0
  -12.9795  -28.3016  -35.8931 H   0  0  0  0  0  0  0  0  0  0  0  0
  -12.2055  -28.1634  -34.3131 H   0  0  0  0  0  0  0  0  0  0  0  0
  -11.8828  -25.6974  -33.2989 H   0  0  0  0  0  0  0  0  0  0  0  0
  -12.4480  -24.3347  -34.2657 H   0  0  0  0  0  0  0  0  0  0  0  0
  -10.5149  -28.5332  -36.0392 H   0  0  0  0  0  0  0  0  0  0  0  0
  -11.0566  -27.1382  -36.9630 H   0  0  0  0  0  0  0  0  0  0  0  0
  -10.7328  -24.8147  -35.9972 H   0  0  0  0  0  0  0  0  0  0  0  0
   -9.9767  -24.6571  -34.4116 H   0  0  0  0  0  0  0  0  0  0  0  0
  -16.8212  -24.0998  -37.2691 H   0  0  0  0  0  0  0  0  0  0  0  0
  -13.8798  -26.4354  -34.4210 H   0  0  0  0  0  0  0  0  0  0  0  0
   -8.3088  -28.4643  -36.0498 H   0  0  0  0  0  0  0  0  0  0  0  0
   -8.9773  -29.0226  -34.4943 H   0  0  0  0  0  0  0  0  0  0  0  0
   -7.3056  -28.3877  -34.5786 H   0  0  0  0  0  0  0  0  0  0  0  0
  -14.1934  -24.7929  -38.3829 H   0  0  0  0  0  0  0  0  0  0  0  0
  -12.8302  -25.6963  -37.0732 H   0  0  0  0  0  0  0  0  0  0  0  0
  1 15  1  0  0  0  0
  1 16  1  0  0  0  0
  1 19  2  0  0  0  0
  2 17  1  0  0  0  0
  2 18  1  0  0  0  0
  2 20  2  0  0  0  0
  3  4  1  0  0  0  0
  3  5  1  0  0  0  0
  4  6  1  0  0  0  0
  5  7  1  0  0  0  0
  6  8  1  0  0  0  0
  7 13  1  0  0  0  0
  8 13  1  0  0  0  0
  9 11  1  0  0  0  0
  9 14  1  0  0  0  0
 10 12  1  0  0  0  0
 10 14  1  0  0  0  0
 11 16  1  0  0  0  0
 12 16  1  0  0  0  0
 13 17  1  0  0  0  0
 14 18  1  0  0  0  0
  3 21  1  0  0  0  0
  3 22  1  0  0  0  0
  4 23  1  0  0  0  0
  4 24  1  0  0  0  0
  5 25  1  0  0  0  0
  5 26  1  0  0  0  0
  6 27  1  0  0  0  0
  6 28  1  0  0  0  0
  7 29  1  0  0  0  0
  7 30  1  0  0  0  0
  8 31  1  0  0  0  0
  8 32  1  0  0  0  0
  9 33  1  0  0  0  0
  9 34  1  0  0  0  0
 10 35  1  0  0  0  0
 10 36  1  0  0  0  0
 11 37  1  0  0  0  0
 11 38  1  0  0  0  0
 12 39  1  0  0  0  0
 12 40  1  0  0  0  0
 13 41  1  0  0  0  0
 14 42  1  0  0  0  0
 15 43  1  0  0  0  0
 15 44  1  0  0  0  0
 15 45  1  0  0  0  0
 17 46  1  0  0  0  0
 18 47  1  0  0  0  0
M  END
> <Name>
A_49

> <SourceTag>
A_49

> <Gold.Version>
5.2

> <Gold.Id.Protein>
6HGV|6HGV_protein|mol2

> <Gold.Goldscore.Fitness>
56.2104

> <Gold.Goldscore.Internal.Vdw>
-4.7644

> <Gold.Goldscore.Internal.Torsion>
-2.0578

> <Gold.Goldscore.External.Vdw>
40.8524

> <Gold.Goldscore.Internal.HBond>
0.0000

> <Gold.Goldscore.External.HBond>
1.8460

> <Gold.Goldscore.Internal.Correction>
-5.0145

> <Gold.Goldscore.Hbonds>
donor molecule, donor type, donor heavy atom, donor atom, acceptor molecule, acceptor atom, score
      L1  H    17    46       P1  1931  0.92

> <Gold.Goldscore.Internal.Vdw.Weighted>
-4.7644

> <Gold.Goldscore.Internal.Torsion.Weighted>
-2.0578

> <Gold.Goldscore.External.Vdw.Weighted>
56.1721

> <Gold.Goldscore.Internal.HBond.Weighted>
0.0000

> <Gold.Goldscore.External.HBond.Weighted>
1.8460

> <Gold.Goldscore.Internal.Correction.Weighted>
-5.0145

> <Gold.Protein.RotatedTorsions>
[ 3781 1176 1175 1172 ] final -174.91 input   60.00 | X-H torsion
[ 3847 1247 1246 1244 ] final  157.94 input   60.00 | X-H torsion
[ 4507 1931 1930 1928 ] final  179.59 input   60.00 | X-H torsion
[ 3677 1070 1069 1066 ] final  -89.68 input   60.00 | X-H torsion
[ 3525  925  924  922 ] final  -11.98 input   59.99 | X-H torsion
[ 4531 1957 1955 1953 ] final   82.70 input   60.00 | X-H torsion

> <Gold.Protein.ActiveResidues>
 PHE267  PRO268  MET310  ASP335  TRP336  MET339  TYR343  THR360  PRO361  ILE363 
 PRO371  SER374  ILE375  ASN378  PHE381  TYR383  GLN384  PHE387  LEU408  LEU417 
 MET419  LEU428  TYR466  MET469  ASN472  ASP496  VAL498  LEU499  MET503  HIS524 
 TRP525 

> <Gold.Protein.RotatedAtoms>
   -3.6902  -29.5209  -30.3057 H   0  0  0  0  0  0  0  0  0  0  0  0  # atno 3525 bound_to 925 
  -11.8878  -23.8100  -31.3735 H   0  0  0  0  0  0  0  0  0  0  0  0  # atno 3677 bound_to 1070
   -9.2557  -36.4829  -32.9327 H   0  0  0  0  0  0  0  0  0  0  0  0  # atno 3781 bound_to 1176
  -14.4407  -27.7183  -37.9355 H   0  0  0  0  0  0  0  0  0  0  0  0  # atno 3847 bound_to 1247
  -12.8663  -23.8435  -40.1815 H   0  0  0  0  0  0  0  0  0  0  0  0  # atno 4507 bound_to 1931
   -2.8820  -33.7375  -36.7056 H   0  0  0  0  0  0  0  0  0  0  0  0  # atno 4531 bound_to 1957
  -10.5579  -37.4326  -32.7085 LP  0  0  0  0  0  0  0  0  0  0  0  0  # atno 5205 bound_to 1176
  -10.3027  -36.7203  -34.1556 LP  0  0  0  0  0  0  0  0  0  0  0  0  # atno 5206 bound_to 1176
  -15.1618  -28.9624  -37.1738 LP  0  0  0  0  0  0  0  0  0  0  0  0  # atno 5215 bound_to 1247
  -15.9672  -27.5590  -37.3945 LP  0  0  0  0  0  0  0  0  0  0  0  0  # atno 5216 bound_to 1247
  -12.6410  -24.6721  -38.7992 LP  0  0  0  0  0  0  0  0  0  0  0  0  # atno 5217 bound_to 1931
  -13.6888  -25.2237  -39.9237 LP  0  0  0  0  0  0  0  0  0  0  0  0  # atno 5218 bound_to 1931
  -11.2345  -22.3988  -30.8940 LP  0  0  0  0  0  0  0  0  0  0  0  0  # atno 5224 bound_to 1070
  -12.7322  -22.8192  -30.3971 LP  0  0  0  0  0  0  0  0  0  0  0  0  # atno 5225 bound_to 1070

$$$$
A_60|SEH_inhibs_minimized|sdf|41|dock1
  -GOLD-   4182110163D 1   1.00000     0.00000

 63 66  0  0  0  0  0  0  0  0  1 V2000
   -9.3857  -25.7832  -34.7033 C   0  0  0  0  0  0  0  0  0  0  0  0
  -10.4071  -25.0040  -35.2467 C   0  0  0  0  0  0  0  0  0  0  0  0
   -9.4138  -27.1702  -34.8490 C   0  0  0  0  0  0  0  0  0  0  0  0
  -11.4851  -26.9990  -36.0809 C   0  0  0  0  0  0  0  0  0  0  0  0
  -11.4570  -25.6119  -35.9354 C   0  0  0  0  0  0  0  0  0  0  0  0
  -10.4636  -27.7782  -35.5377 C   0  0  0  0  0  0  0  0  0  0  0  0
  -13.7477  -25.2440  -36.9349 C   0  0  0  0  0  0  0  0  0  0  0  0
  -18.2045  -25.9016  -38.5907 C   0  0  0  0  0  0  0  0  0  0  0  0
  -17.7484  -24.0074  -40.1697 C   0  0  0  0  0  0  0  0  0  0  0  0
  -18.6883  -23.5419  -37.8917 C   0  0  0  0  0  0  0  0  0  0  0  0
  -15.8412  -25.2588  -39.1286 C   0  0  0  0  0  0  0  0  0  0  0  0
  -16.7822  -24.7931  -36.8483 C   0  0  0  0  0  0  0  0  0  0  0  0
  -16.3256  -22.8956  -38.4293 C   0  0  0  0  0  0  0  0  0  0  0  0
  -17.2655  -25.3886  -39.6954 C   0  0  0  0  0  0  0  0  0  0  0  0
  -18.2103  -24.9209  -37.4059 C   0  0  0  0  0  0  0  0  0  0  0  0
  -17.7519  -23.0165  -38.9932 C   0  0  0  0  0  0  0  0  0  0  0  0
  -15.8227  -24.2713  -37.9408 C   0  0  0  0  0  0  0  0  0  0  0  0
   -4.0914  -33.4688  -34.2836 C   0  0  0  0  0  0  0  0  0  0  0  0
   -5.4251  -34.1831  -34.2321 C   0  0  0  0  0  0  0  0  0  0  0  0
   -9.2464  -29.8209  -35.5851 C   0  0  0  0  0  0  0  0  0  0  0  0
   -9.4214  -31.2328  -36.1103 C   0  0  0  0  0  0  0  0  0  0  0  0
   -7.5525  -34.2719  -35.2266 C   0  0  0  0  0  0  0  0  0  0  0  0
   -8.5537  -33.4126  -35.9743 C   0  0  0  0  0  0  0  0  0  0  0  0
  -12.4931  -24.8219  -36.4856 N   0  0  0  0  0  0  0  0  0  0  0  0
  -14.4828  -24.1534  -37.4086 N   0  0  0  0  0  0  0  0  0  0  0  0
  -14.1774  -26.3951  -36.9306 O   0  0  0  0  0  0  0  0  0  0  0  0
  -10.4923  -29.1315  -35.6789 O   0  0  0  0  0  0  0  0  0  0  0  0
   -6.3013  -33.5965  -35.1842 O   0  0  0  0  0  0  0  0  0  0  0  0
   -8.4016  -32.0607  -35.5645 O   0  0  0  0  0  0  0  0  0  0  0  0
   -8.5687  -25.3100  -34.1666 H   0  0  0  0  0  0  0  0  0  0  0  0
  -10.3752  -23.9241  -35.1272 H   0  0  0  0  0  0  0  0  0  0  0  0
   -8.6156  -27.7723  -34.4233 H   0  0  0  0  0  0  0  0  0  0  0  0
  -12.3013  -27.4780  -36.6168 H   0  0  0  0  0  0  0  0  0  0  0  0
  -19.2208  -26.0163  -38.9871 H   0  0  0  0  0  0  0  0  0  0  0  0
  -17.8801  -26.8939  -38.2540 H   0  0  0  0  0  0  0  0  0  0  0  0
  -17.0957  -23.6365  -40.9695 H   0  0  0  0  0  0  0  0  0  0  0  0
  -18.7569  -24.0888  -40.5935 H   0  0  0  0  0  0  0  0  0  0  0  0
  -19.7132  -23.6146  -38.2755 H   0  0  0  0  0  0  0  0  0  0  0  0
  -18.7119  -22.8366  -37.0519 H   0  0  0  0  0  0  0  0  0  0  0  0
  -15.4770  -26.2443  -38.8100 H   0  0  0  0  0  0  0  0  0  0  0  0
  -15.1563  -24.9181  -39.9163 H   0  0  0  0  0  0  0  0  0  0  0  0
  -16.7788  -24.1150  -35.9847 H   0  0  0  0  0  0  0  0  0  0  0  0
  -16.4391  -25.7670  -36.4752 H   0  0  0  0  0  0  0  0  0  0  0  0
  -15.6528  -22.4969  -39.1999 H   0  0  0  0  0  0  0  0  0  0  0  0
  -16.3125  -22.1704  -37.6049 H   0  0  0  0  0  0  0  0  0  0  0  0
  -17.2662  -26.0900  -40.5372 H   0  0  0  0  0  0  0  0  0  0  0  0
  -18.8816  -25.2905  -36.6229 H   0  0  0  0  0  0  0  0  0  0  0  0
  -18.0985  -22.0355  -39.3365 H   0  0  0  0  0  0  0  0  0  0  0  0
   -3.3681  -33.9441  -33.6152 H   0  0  0  0  0  0  0  0  0  0  0  0
   -3.6891  -33.4752  -35.3019 H   0  0  0  0  0  0  0  0  0  0  0  0
   -4.2045  -32.4191  -33.9926 H   0  0  0  0  0  0  0  0  0  0  0  0
   -5.8719  -34.0903  -33.2377 H   0  0  0  0  0  0  0  0  0  0  0  0
   -5.3024  -35.2434  -34.4723 H   0  0  0  0  0  0  0  0  0  0  0  0
   -8.5069  -29.2698  -36.1740 H   0  0  0  0  0  0  0  0  0  0  0  0
   -8.9426  -29.8381  -34.5345 H   0  0  0  0  0  0  0  0  0  0  0  0
   -9.3364  -31.2615  -37.2011 H   0  0  0  0  0  0  0  0  0  0  0  0
  -10.3909  -31.6373  -35.8053 H   0  0  0  0  0  0  0  0  0  0  0  0
   -7.4044  -35.2326  -35.7291 H   0  0  0  0  0  0  0  0  0  0  0  0
   -7.8857  -34.4410  -34.1984 H   0  0  0  0  0  0  0  0  0  0  0  0
   -9.5805  -33.7217  -35.7552 H   0  0  0  0  0  0  0  0  0  0  0  0
   -8.3747  -33.4662  -37.0521 H   0  0  0  0  0  0  0  0  0  0  0  0
  -12.3024  -23.8261  -36.5637 H   0  0  0  0  0  0  0  0  0  0  0  0
  -14.0555  -23.2339  -37.3775 H   0  0  0  0  0  0  0  0  0  0  0  0
  1  2  2  0  0  0  0
  1  3  1  0  0  0  0
  2  5  1  0  0  0  0
  3  6  2  0  0  0  0
  4  5  2  0  0  0  0
  4  6  1  0  0  0  0
  5 24  1  0  0  0  0
  6 27  1  0  0  0  0
  7 24  1  0  0  0  0
  7 25  1  0  0  0  0
  7 26  2  0  0  0  0
  8 14  1  0  0  0  0
  8 15  1  0  0  0  0
  9 14  1  0  0  0  0
  9 16  1  0  0  0  0
 10 15  1  0  0  0  0
 10 16  1  0  0  0  0
 11 14  1  0  0  0  0
 11 17  1  0  0  0  0
 12 15  1  0  0  0  0
 12 17  1  0  0  0  0
 13 16  1  0  0  0  0
 13 17  1  0  0  0  0
 17 25  1  0  0  0  0
 18 19  1  0  0  0  0
 19 28  1  0  0  0  0
 20 21  1  0  0  0  0
 20 27  1  0  0  0  0
 21 29  1  0  0  0  0
 22 23  1  0  0  0  0
 22 28  1  0  0  0  0
 23 29  1  0  0  0  0
  1 30  1  0  0  0  0
  2 31  1  0  0  0  0
  3 32  1  0  0  0  0
  4 33  1  0  0  0  0
  8 34  1  0  0  0  0
  8 35  1  0  0  0  0
  9 36  1  0  0  0  0
  9 37  1  0  0  0  0
 10 38  1  0  0  0  0
 10 39  1  0  0  0  0
 11 40  1  0  0  0  0
 11 41  1  0  0  0  0
 12 42  1  0  0  0  0
 12 43  1  0  0  0  0
 13 44  1  0  0  0  0
 13 45  1  0  0  0  0
 14 46  1  0  0  0  0
 15 47  1  0  0  0  0
 16 48  1  0  0  0  0
 18 49  1  0  0  0  0
 18 50  1  0  0  0  0
 18 51  1  0  0  0  0
 19 52  1  0  0  0  0
 19 53  1  0  0  0  0
 20 54  1  0  0  0  0
 20 55  1  0  0  0  0
 21 56  1  0  0  0  0
 21 57  1  0  0  0  0
 22 58  1  0  0  0  0
 22 59  1  0  0  0  0
 23 60  1  0  0  0  0
 23 61  1  0  0  0  0
 24 62  1  0  0  0  0
 25 63  1  0  0  0  0
M  END
> <Name>
A_60

> <SourceTag>
A_60

> <Gold.Version>
5.2

> <Gold.Id.Protein>
6HGV|6HGV_protein|mol2

> <Gold.Goldscore.Fitness>
72.6832

> <Gold.Goldscore.Internal.Vdw>
-14.3439

> <Gold.Goldscore.Internal.Torsion>
-3.9942

> <Gold.Goldscore.External.Vdw>
51.1256

> <Gold.Goldscore.Internal.HBond>
0.0000

> <Gold.Goldscore.External.HBond>
4.0103

> <Gold.Goldscore.Internal.Correction>
-16.7132

> <Gold.Goldscore.Hbonds>
donor molecule, donor type, donor heavy atom, donor atom, acceptor molecule, acceptor atom, score
      P1  H  1256  3854       L1    27  0.42
      L1  H    24    62       P1   854  0.34
      L1  H    25    63       P1   854  0.19

> <Gold.Goldscore.Internal.Vdw.Weighted>
-14.3439

> <Gold.Goldscore.Internal.Torsion.Weighted>
-3.9942

> <Gold.Goldscore.External.Vdw.Weighted>
70.2977

> <Gold.Goldscore.Internal.HBond.Weighted>
0.0000

> <Gold.Goldscore.External.HBond.Weighted>
4.0103

> <Gold.Goldscore.Internal.Correction.Weighted>
-16.7132

> <Gold.Protein.RotatedTorsions>
[ 3781 1176 1175 1172 ] final -128.57 input   60.00 | X-H torsion
[ 3847 1247 1246 1244 ] final  -37.75 input   60.00 | X-H torsion
[ 4507 1931 1930 1928 ] final  112.41 input   60.00 | X-H torsion
[ 3677 1070 1069 1066 ] final -131.30 input   60.00 | X-H torsion
[ 3525  925  924  922 ] final   51.76 input   59.99 | X-H torsion
[ 4531 1957 1955 1953 ] final  142.96 input   60.00 | X-H torsion

> <Gold.Protein.ActiveResidues>
 PHE267  PRO268  MET310  ASP335  TRP336  MET339  TYR343  THR360  PRO361  ILE363 
 PRO371  SER374  ILE375  ASN378  PHE381  TYR383  GLN384  PHE387  LEU408  LEU417 
 MET419  LEU428  TYR466  MET469  ASN472  ASP496  VAL498  LEU499  MET503  HIS524 
 TRP525 

> <Gold.Protein.RotatedAtoms>
   -2.9283  -29.8014  -30.8698 H   0  0  0  0  0  0  0  0  0  0  0  0  # atno 3525 bound_to 925 
  -11.3334  -23.4484  -31.4402 H   0  0  0  0  0  0  0  0  0  0  0  0  # atno 3677 bound_to 1070
   -9.3914  -36.3101  -33.6359 H   0  0  0  0  0  0  0  0  0  0  0  0  # atno 3781 bound_to 1176
  -16.0336  -28.2099  -37.1222 H   0  0  0  0  0  0  0  0  0  0  0  0  # atno 3847 bound_to 1247
  -12.4335  -24.0022  -39.2539 H   0  0  0  0  0  0  0  0  0  0  0  0  # atno 4507 bound_to 1931
   -2.0125  -34.0514  -36.8764 H   0  0  0  0  0  0  0  0  0  0  0  0  # atno 4531 bound_to 1957
   -9.9576  -37.1595  -32.3686 LP  0  0  0  0  0  0  0  0  0  0  0  0  # atno 5205 bound_to 1176
  -10.7662  -37.1675  -33.7873 LP  0  0  0  0  0  0  0  0  0  0  0  0  # atno 5206 bound_to 1176
  -14.9736  -27.2524  -37.9018 LP  0  0  0  0  0  0  0  0  0  0  0  0  # atno 5215 bound_to 1247
  -14.5511  -28.7739  -37.4856 LP  0  0  0  0  0  0  0  0  0  0  0  0  # atno 5216 bound_to 1247
  -13.3384  -25.3522  -39.1726 LP  0  0  0  0  0  0  0  0  0  0  0  0  # atno 5217 bound_to 1931
  -13.4274  -24.3839  -40.4845 LP  0  0  0  0  0  0  0  0  0  0  0  0  # atno 5218 bound_to 1931
  -11.7391  -22.1716  -30.5165 LP  0  0  0  0  0  0  0  0  0  0  0  0  # atno 5224 bound_to 1070
  -12.7859  -23.4104  -30.7074 LP  0  0  0  0  0  0  0  0  0  0  0  0  # atno 5225 bound_to 1070

$$$$
A_22|SEH_inhibs_minimized|sdf|21|dock7
  -GOLD-   41821 9363D 1   1.00000     0.00000

 61 66  0  0  0  0  0  0  0  0  1 V2000
  -21.4072  -24.3539  -39.2923 C   0  0  0  0  0  0  0  0  0  0  0  0
  -20.5250  -24.0893  -40.3399 C   0  0  0  0  0  0  0  0  0  0  0  0
  -20.9159  -24.7695  -38.0547 C   0  0  0  0  0  0  0  0  0  0  0  0
   -9.0187  -30.4443  -34.6481 C   0  0  0  0  0  0  0  0  0  0  0  0
  -19.1513  -24.2403  -40.1497 C   0  0  0  0  0  0  0  0  0  0  0  0
  -19.5423  -24.9204  -37.8647 C   0  0  0  0  0  0  0  0  0  0  0  0
  -10.1779  -29.6734  -34.5570 C   0  0  0  0  0  0  0  0  0  0  0  0
   -6.5193  -31.7152  -35.5978 C   0  0  0  0  0  0  0  0  0  0  0  0
   -5.4570  -30.3237  -33.9485 C   0  0  0  0  0  0  0  0  0  0  0  0
   -7.6696  -28.4430  -34.5117 C   0  0  0  0  0  0  0  0  0  0  0  0
   -5.3471  -32.4517  -35.6530 C   0  0  0  0  0  0  0  0  0  0  0  0
   -4.3322  -31.1225  -34.0774 C   0  0  0  0  0  0  0  0  0  0  0  0
   -7.7671  -29.8295  -34.6301 C   0  0  0  0  0  0  0  0  0  0  0  0
   -6.5672  -30.6324  -34.7267 C   0  0  0  0  0  0  0  0  0  0  0  0
   -8.8332  -27.6747  -34.4175 C   0  0  0  0  0  0  0  0  0  0  0  0
  -18.6600  -24.6557  -38.9121 C   0  0  0  0  0  0  0  0  0  0  0  0
  -10.0878  -28.2839  -34.4552 C   0  0  0  0  0  0  0  0  0  0  0  0
   -8.7516  -26.2139  -34.2417 C   0  0  0  0  0  0  0  0  0  0  0  0
  -14.5477  -25.5186  -37.3450 C   0  0  0  0  0  0  0  0  0  0  0  0
  -10.0572  -25.5074  -33.9924 C   0  0  0  0  0  0  0  0  0  0  0  0
  -11.1303  -26.0188  -36.2583 C   0  0  0  0  0  0  0  0  0  0  0  0
  -12.5438  -25.5858  -34.2421 C   0  0  0  0  0  0  0  0  0  0  0  0
  -16.2761  -23.6691  -39.0415 C   0  0  0  0  0  0  0  0  0  0  0  0
  -12.3544  -26.5964  -36.9669 C   0  0  0  0  0  0  0  0  0  0  0  0
  -13.7611  -26.1455  -34.9854 C   0  0  0  0  0  0  0  0  0  0  0  0
  -17.1998  -24.8162  -38.7102 C   0  0  1  0  0  0  0  0  0  0  0  0
  -16.5141  -24.0360  -37.6065 C   0  0  1  0  0  0  0  0  0  0  0  0
  -11.2124  -26.2040  -34.7243 C   0  0  0  0  0  0  0  0  0  0  0  0
   -4.2484  -32.1823  -34.9125 N   0  0  0  0  0  0  0  0  0  0  0  0
  -13.5997  -26.0316  -36.4418 N   0  0  0  0  0  0  0  0  0  0  0  0
  -15.4791  -24.6366  -36.8083 N   0  0  0  0  0  0  0  0  0  0  0  0
   -7.6750  -25.6292  -34.2377 O   0  0  0  0  0  0  0  0  0  0  0  0
  -14.5689  -25.8277  -38.5414 O   0  0  0  0  0  0  0  0  0  0  0  0
  -11.2711  -27.6019  -34.3836 O   0  0  0  0  0  0  0  0  0  0  0  0
  -22.4764  -24.2361  -39.4402 H   0  0  0  0  0  0  0  0  0  0  0  0
  -20.9075  -23.7663  -41.3036 H   0  0  0  0  0  0  0  0  0  0  0  0
  -21.6025  -24.9747  -37.2389 H   0  0  0  0  0  0  0  0  0  0  0  0
   -9.1079  -31.5247  -34.7343 H   0  0  0  0  0  0  0  0  0  0  0  0
  -18.4723  -24.0318  -40.9722 H   0  0  0  0  0  0  0  0  0  0  0  0
  -19.1695  -25.2446  -36.8965 H   0  0  0  0  0  0  0  0  0  0  0  0
  -11.1488  -30.1617  -34.5771 H   0  0  0  0  0  0  0  0  0  0  0  0
   -7.3650  -31.9857  -36.2219 H   0  0  0  0  0  0  0  0  0  0  0  0
   -5.4564  -29.4865  -33.2579 H   0  0  0  0  0  0  0  0  0  0  0  0
   -6.6913  -27.9686  -34.4845 H   0  0  0  0  0  0  0  0  0  0  0  0
   -5.2585  -33.3051  -36.3175 H   0  0  0  0  0  0  0  0  0  0  0  0
   -3.4402  -30.9237  -33.4927 H   0  0  0  0  0  0  0  0  0  0  0  0
  -10.2166  -25.5178  -32.9070 H   0  0  0  0  0  0  0  0  0  0  0  0
   -9.9653  -24.4655  -34.3198 H   0  0  0  0  0  0  0  0  0  0  0  0
  -10.2397  -26.5061  -36.6705 H   0  0  0  0  0  0  0  0  0  0  0  0
  -11.0513  -24.9499  -36.4950 H   0  0  0  0  0  0  0  0  0  0  0  0
  -12.5155  -24.4967  -34.3805 H   0  0  0  0  0  0  0  0  0  0  0  0
  -12.6812  -25.7781  -33.1705 H   0  0  0  0  0  0  0  0  0  0  0  0
  -15.3168  -23.9114  -39.4846 H   0  0  0  0  0  0  0  0  0  0  0  0
  -16.7035  -22.7401  -39.4007 H   0  0  0  0  0  0  0  0  0  0  0  0
  -12.2677  -26.4174  -38.0432 H   0  0  0  0  0  0  0  0  0  0  0  0
  -12.4073  -27.6828  -36.8283 H   0  0  0  0  0  0  0  0  0  0  0  0
  -13.9042  -27.2078  -34.7570 H   0  0  0  0  0  0  0  0  0  0  0  0
  -14.6416  -25.6127  -34.6258 H   0  0  0  0  0  0  0  0  0  0  0  0
  -16.8079  -25.8087  -38.9165 H   0  0  0  0  0  0  0  0  0  0  0  0
  -17.1201  -23.3467  -37.0275 H   0  0  0  0  0  0  0  0  0  0  0  0
  -15.4269  -24.4094  -35.8231 H   0  0  0  0  0  0  0  0  0  0  0  0
  1  2  2  0  0  0  0
  1  3  1  0  0  0  0
  2  5  1  0  0  0  0
  3  6  2  0  0  0  0
  4  7  2  0  0  0  0
  4 13  1  0  0  0  0
  5 16  2  0  0  0  0
  6 16  1  0  0  0  0
  7 17  1  0  0  0  0
  8 11  1  0  0  0  0
  8 14  2  0  0  0  0
  9 12  2  0  0  0  0
  9 14  1  0  0  0  0
 10 13  2  0  0  0  0
 10 15  1  0  0  0  0
 11 29  2  0  0  0  0
 12 29  1  0  0  0  0
 13 14  1  0  0  0  0
 15 17  2  0  0  0  0
 15 18  1  0  0  0  0
 16 26  1  0  0  0  0
 17 34  1  0  0  0  0
 18 20  1  0  0  0  0
 18 32  2  0  0  0  0
 19 30  1  0  0  0  0
 19 31  1  0  0  0  0
 19 33  2  0  0  0  0
 20 28  1  0  0  0  0
 21 24  1  0  0  0  0
 21 28  1  0  0  0  0
 22 25  1  0  0  0  0
 22 28  1  0  0  0  0
 23 26  1  0  0  0  0
 23 27  1  0  0  0  0
 24 30  1  0  0  0  0
 25 30  1  0  0  0  0
 26 27  1  0  0  0  0
 27 31  1  0  0  0  0
 28 34  1  0  0  0  0
  1 35  1  0  0  0  0
  2 36  1  0  0  0  0
  3 37  1  0  0  0  0
  4 38  1  0  0  0  0
  5 39  1  0  0  0  0
  6 40  1  0  0  0  0
  7 41  1  0  0  0  0
  8 42  1  0  0  0  0
  9 43  1  0  0  0  0
 10 44  1  0  0  0  0
 11 45  1  0  0  0  0
 12 46  1  0  0  0  0
 20 47  1  0  0  0  0
 20 48  1  0  0  0  0
 21 49  1  0  0  0  0
 21 50  1  0  0  0  0
 22 51  1  0  0  0  0
 22 52  1  0  0  0  0
 23 53  1  0  0  0  0
 23 54  1  0  0  0  0
 24 55  1  0  0  0  0
 24 56  1  0  0  0  0
 25 57  1  0  0  0  0
 25 58  1  0  0  0  0
 26 59  1  0  0  0  0
 27 60  1  0  0  0  0
 31 61  1  0  0  0  0
M  END
> <Name>
A_22

> <SourceTag>
A_22

> <Gold.Version>
5.2

> <Gold.Id.Protein>
6HGV|6HGV_protein|mol2

> <Gold.Goldscore.Fitness>
65.5973

> <Gold.Goldscore.Internal.Vdw>
-13.4137

> <Gold.Goldscore.Internal.Torsion>
-5.6152

> <Gold.Goldscore.External.Vdw>
52.3306

> <Gold.Goldscore.Internal.HBond>
0.0000

> <Gold.Goldscore.External.HBond>
0.9554

> <Gold.Goldscore.Internal.Correction>
-11.7161

> <Gold.Goldscore.Hbonds>
donor molecule, donor type, donor heavy atom, donor atom, acceptor molecule, acceptor atom, score
      P1  H  1957  4531       L1    29  0.48

> <Gold.Goldscore.Internal.Vdw.Weighted>
-13.4137

> <Gold.Goldscore.Internal.Torsion.Weighted>
-5.6152

> <Gold.Goldscore.External.Vdw.Weighted>
71.9546

> <Gold.Goldscore.Internal.HBond.Weighted>
0.0000

> <Gold.Goldscore.External.HBond.Weighted>
0.9554

> <Gold.Goldscore.Internal.Correction.Weighted>
-11.7161

> <Gold.Protein.RotatedTorsions>
[ 3781 1176 1175 1172 ] final  168.30 input   60.00 | X-H torsion
[ 3847 1247 1246 1244 ] final  -63.77 input   60.00 | X-H torsion
[ 4507 1931 1930 1928 ] final   95.41 input   60.00 | X-H torsion
[ 3677 1070 1069 1066 ] final -109.71 input   60.00 | X-H torsion
[ 3525  925  924  922 ] final   -8.94 input   59.99 | X-H torsion
[ 4531 1957 1955 1953 ] final   14.33 input   60.00 | X-H torsion

> <Gold.Protein.ActiveResidues>
 PHE267  PRO268  MET310  ASP335  TRP336  MET339  TYR343  THR360  PRO361  ILE363 
 PRO371  SER374  ILE375  ASN378  PHE381  TYR383  GLN384  PHE387  LEU408  LEU417 
 MET419  LEU428  TYR466  MET469  ASN472  ASP496  VAL498  LEU499  MET503  HIS524 
 TRP525 

> <Gold.Protein.RotatedAtoms>
   -3.6697  -29.5257  -30.3506 H   0  0  0  0  0  0  0  0  0  0  0  0  # atno 3525 bound_to 925 
  -11.5975  -23.6791  -31.4417 H   0  0  0  0  0  0  0  0  0  0  0  0  # atno 3677 bound_to 1070
   -9.3312  -36.6177  -32.7072 H   0  0  0  0  0  0  0  0  0  0  0  0  # atno 3781 bound_to 1176
  -16.0543  -27.8140  -37.2655 H   0  0  0  0  0  0  0  0  0  0  0  0  # atno 3847 bound_to 1247
  -12.4461  -24.1896  -39.0507 H   0  0  0  0  0  0  0  0  0  0  0  0  # atno 4507 bound_to 1931
   -2.9897  -32.6916  -36.6671 H   0  0  0  0  0  0  0  0  0  0  0  0  # atno 4531 bound_to 1957
  -10.7110  -37.4493  -32.9366 LP  0  0  0  0  0  0  0  0  0  0  0  0  # atno 5205 bound_to 1176
  -10.0735  -36.5678  -34.1545 LP  0  0  0  0  0  0  0  0  0  0  0  0  # atno 5206 bound_to 1176
  -14.6186  -27.4790  -37.9545 LP  0  0  0  0  0  0  0  0  0  0  0  0  # atno 5215 bound_to 1247
  -14.8854  -28.9460  -37.2886 LP  0  0  0  0  0  0  0  0  0  0  0  0  # atno 5216 bound_to 1247
  -13.4947  -25.3837  -39.4012 LP  0  0  0  0  0  0  0  0  0  0  0  0  # atno 5217 bound_to 1931
  -13.2584  -24.1636  -40.4605 LP  0  0  0  0  0  0  0  0  0  0  0  0  # atno 5218 bound_to 1931
  -11.4448  -22.2390  -30.6996 LP  0  0  0  0  0  0  0  0  0  0  0  0  # atno 5224 bound_to 1070
  -12.8143  -23.1107  -30.5228 LP  0  0  0  0  0  0  0  0  0  0  0  0  # atno 5225 bound_to 1070

$$$$
A_125|SEH_inhibs_minimized|sdf|13|dock9
  -GOLD-   41821 9173D 1   1.00000     0.00000

 49 52  0  0  0  0  0  0  0  0  1 V2000
  -18.6415  -24.8340  -35.9404 C   0  0  0  0  0  0  0  0  0  0  0  0
  -17.3210  -25.2806  -35.9909 C   0  0  0  0  0  0  0  0  0  0  0  0
  -19.1036  -23.9152  -36.8828 C   0  0  0  0  0  0  0  0  0  0  0  0
  -16.9246  -23.8894  -37.9261 C   0  0  0  0  0  0  0  0  0  0  0  0
  -16.4625  -24.8083  -36.9837 C   0  0  0  0  0  0  0  0  0  0  0  0
  -18.2451  -23.4430  -37.8756 C   0  0  0  0  0  0  0  0  0  0  0  0
  -14.3205  -25.6850  -35.9721 C   0  0  0  0  0  0  0  0  0  0  0  0
  -10.9781  -27.1612  -32.8676 C   0  0  0  0  0  0  0  0  0  0  0  0
   -9.2538  -26.3565  -34.5012 C   0  0  0  0  0  0  0  0  0  0  0  0
  -10.1706  -28.6830  -34.6903 C   0  0  0  0  0  0  0  0  0  0  0  0
  -11.5829  -25.4309  -34.5787 C   0  0  0  0  0  0  0  0  0  0  0  0
  -12.5007  -27.7598  -34.7679 C   0  0  0  0  0  0  0  0  0  0  0  0
  -10.7736  -26.9545  -36.4042 C   0  0  0  0  0  0  0  0  0  0  0  0
  -10.4664  -25.9407  -33.6512 C   0  0  0  0  0  0  0  0  0  0  0  0
  -11.3880  -28.2791  -33.8411 C   0  0  0  0  0  0  0  0  0  0  0  0
   -9.6543  -27.4704  -35.4834 C   0  0  0  0  0  0  0  0  0  0  0  0
  -12.0048  -26.5370  -35.5712 C   0  0  0  0  0  0  0  0  0  0  0  0
  -20.1959  -23.8023  -40.1903 C   0  0  0  0  0  0  0  0  0  0  0  0
  -18.9279  -22.9900  -40.1325 C   0  0  0  0  0  0  0  0  0  0  0  0
  -15.1238  -25.2616  -37.0346 N   0  0  0  0  0  0  0  0  0  0  0  0
  -13.0565  -26.0550  -36.4397 N   0  0  0  0  0  0  0  0  0  0  0  0
  -14.6416  -25.7390  -34.7873 O   0  0  0  0  0  0  0  0  0  0  0  0
  -18.6959  -22.5462  -38.7951 O   0  0  0  0  0  0  0  0  0  0  0  0
  -20.3941  -24.2505  -41.4546 F   0  0  0  0  0  0  0  0  0  0  0  0
  -21.2541  -23.0124  -39.8839 F   0  0  0  0  0  0  0  0  0  0  0  0
  -17.8874  -23.7453  -40.5580 F   0  0  0  0  0  0  0  0  0  0  0  0
  -19.0492  -21.9177  -40.9523 F   0  0  0  0  0  0  0  0  0  0  0  0
  -19.3099  -25.2027  -35.1679 H   0  0  0  0  0  0  0  0  0  0  0  0
  -16.9717  -25.9962  -35.2509 H   0  0  0  0  0  0  0  0  0  0  0  0
  -20.1335  -23.5721  -36.8382 H   0  0  0  0  0  0  0  0  0  0  0  0
  -16.2591  -23.5186  -38.7024 H   0  0  0  0  0  0  0  0  0  0  0  0
  -10.1970  -27.5242  -32.1884 H   0  0  0  0  0  0  0  0  0  0  0  0
  -11.8340  -26.8746  -32.2444 H   0  0  0  0  0  0  0  0  0  0  0  0
   -8.8688  -25.4906  -35.0535 H   0  0  0  0  0  0  0  0  0  0  0  0
   -8.4427  -26.7055  -33.8505 H   0  0  0  0  0  0  0  0  0  0  0  0
   -9.3756  -29.0727  -34.0429 H   0  0  0  0  0  0  0  0  0  0  0  0
  -10.4457  -29.4915  -35.3787 H   0  0  0  0  0  0  0  0  0  0  0  0
  -12.4446  -25.1074  -33.9800 H   0  0  0  0  0  0  0  0  0  0  0  0
  -11.2375  -24.5430  -35.1247 H   0  0  0  0  0  0  0  0  0  0  0  0
  -12.8199  -28.5584  -35.4506 H   0  0  0  0  0  0  0  0  0  0  0  0
  -13.3848  -27.4914  -34.1746 H   0  0  0  0  0  0  0  0  0  0  0  0
  -10.4084  -26.1039  -36.9947 H   0  0  0  0  0  0  0  0  0  0  0  0
  -11.0493  -27.7343  -37.1266 H   0  0  0  0  0  0  0  0  0  0  0  0
  -10.1747  -25.1484  -32.9529 H   0  0  0  0  0  0  0  0  0  0  0  0
  -11.7502  -29.1462  -33.2776 H   0  0  0  0  0  0  0  0  0  0  0  0
   -8.7865  -27.7636  -36.0845 H   0  0  0  0  0  0  0  0  0  0  0  0
  -20.1806  -24.6584  -39.5104 H   0  0  0  0  0  0  0  0  0  0  0  0
  -14.6988  -25.2806  -37.9584 H   0  0  0  0  0  0  0  0  0  0  0  0
  -12.8678  -25.9823  -37.4337 H   0  0  0  0  0  0  0  0  0  0  0  0
  1  2  2  0  0  0  0
  1  3  1  0  0  0  0
  2  5  1  0  0  0  0
  3  6  2  0  0  0  0
  4  5  2  0  0  0  0
  4  6  1  0  0  0  0
  5 20  1  0  0  0  0
  6 23  1  0  0  0  0
  7 20  1  0  0  0  0
  7 21  1  0  0  0  0
  7 22  2  0  0  0  0
  8 14  1  0  0  0  0
  8 15  1  0  0  0  0
  9 14  1  0  0  0  0
  9 16  1  0  0  0  0
 10 15  1  0  0  0  0
 10 16  1  0  0  0  0
 11 14  1  0  0  0  0
 11 17  1  0  0  0  0
 12 15  1  0  0  0  0
 12 17  1  0  0  0  0
 13 16  1  0  0  0  0
 13 17  1  0  0  0  0
 17 21  1  0  0  0  0
 18 19  1  0  0  0  0
 18 24  1  0  0  0  0
 18 25  1  0  0  0  0
 19 23  1  0  0  0  0
 19 26  1  0  0  0  0
 19 27  1  0  0  0  0
  1 28  1  0  0  0  0
  2 29  1  0  0  0  0
  3 30  1  0  0  0  0
  4 31  1  0  0  0  0
  8 32  1  0  0  0  0
  8 33  1  0  0  0  0
  9 34  1  0  0  0  0
  9 35  1  0  0  0  0
 10 36  1  0  0  0  0
 10 37  1  0  0  0  0
 11 38  1  0  0  0  0
 11 39  1  0  0  0  0
 12 40  1  0  0  0  0
 12 41  1  0  0  0  0
 13 42  1  0  0  0  0
 13 43  1  0  0  0  0
 14 44  1  0  0  0  0
 15 45  1  0  0  0  0
 16 46  1  0  0  0  0
 18 47  1  0  0  0  0
 20 48  1  0  0  0  0
 21 49  1  0  0  0  0
M  END
> <Name>
A_125

> <SourceTag>
A_125

> <Gold.Version>
5.2

> <Gold.Id.Protein>
6HGV|6HGV_protein|mol2

> <Gold.Goldscore.Fitness>
56.9663

> <Gold.Goldscore.Internal.Vdw>
-0.6377

> <Gold.Goldscore.Internal.Torsion>
-4.8532

> <Gold.Goldscore.External.Vdw>
41.5491

> <Gold.Goldscore.Internal.HBond>
0.0000

> <Gold.Goldscore.External.HBond>
1.0313

> <Gold.Goldscore.Internal.Correction>
-4.2960

> <Gold.Goldscore.Hbonds>
donor molecule, donor type, donor heavy atom, donor atom, acceptor molecule, acceptor atom, score
      L1  H    20    48       P1  1931  0.26
      L1  H    21    49       P1  1931  0.26

> <Gold.Goldscore.Internal.Vdw.Weighted>
-0.6377

> <Gold.Goldscore.Internal.Torsion.Weighted>
-4.8532

> <Gold.Goldscore.External.Vdw.Weighted>
57.1300

> <Gold.Goldscore.Internal.HBond.Weighted>
0.0000

> <Gold.Goldscore.External.HBond.Weighted>
1.0313

> <Gold.Goldscore.Internal.Correction.Weighted>
-4.2960

> <Gold.Protein.RotatedTorsions>
[ 3781 1176 1175 1172 ] final   76.12 input   60.00 | X-H torsion
[ 3847 1247 1246 1244 ] final  -39.87 input   60.00 | X-H torsion
[ 4507 1931 1930 1928 ] final -126.03 input   60.00 | X-H torsion
[ 3677 1070 1069 1066 ] final  -76.74 input   60.00 | X-H torsion
[ 3525  925  924  922 ] final  100.53 input   59.99 | X-H torsion
[ 4531 1957 1955 1953 ] final   28.10 input   60.00 | X-H torsion

> <Gold.Protein.ActiveResidues>
 PHE267  PRO268  MET310  ASP335  TRP336  MET339  TYR343  THR360  PRO361  ILE363 
 PRO371  SER374  ILE375  ASN378  PHE381  TYR383  GLN384  PHE387  LEU408  LEU417 
 MET419  LEU428  TYR466  MET469  ASN472  ASP496  VAL498  LEU499  MET503  HIS524 
 TRP525 

> <Gold.Protein.RotatedAtoms>
   -2.2776  -30.1107  -30.5897 H   0  0  0  0  0  0  0  0  0  0  0  0  # atno 3525 bound_to 925 
  -12.0816  -23.8437  -31.2974 H   0  0  0  0  0  0  0  0  0  0  0  0  # atno 3677 bound_to 1070
  -10.4280  -37.3939  -32.5887 H   0  0  0  0  0  0  0  0  0  0  0  0  # atno 3781 bound_to 1176
  -16.0420  -28.1776  -37.1312 H   0  0  0  0  0  0  0  0  0  0  0  0  # atno 3847 bound_to 1247
  -13.4371  -24.4076  -40.4780 H   0  0  0  0  0  0  0  0  0  0  0  0  # atno 4507 bound_to 1931
   -3.0699  -32.9010  -36.6555 H   0  0  0  0  0  0  0  0  0  0  0  0  # atno 4531 bound_to 1957
  -10.4421  -36.8287  -34.1146 LP  0  0  0  0  0  0  0  0  0  0  0  0  # atno 5205 bound_to 1176
   -9.2378  -36.4068  -33.0957 LP  0  0  0  0  0  0  0  0  0  0  0  0  # atno 5206 bound_to 1176
  -14.9421  -27.2650  -37.9093 LP  0  0  0  0  0  0  0  0  0  0  0  0  # atno 5215 bound_to 1247
  -14.5743  -28.7938  -37.4689 LP  0  0  0  0  0  0  0  0  0  0  0  0  # atno 5216 bound_to 1247
  -12.4324  -23.9819  -39.2708 LP  0  0  0  0  0  0  0  0  0  0  0  0  # atno 5217 bound_to 1931
  -13.3227  -25.3458  -39.1534 LP  0  0  0  0  0  0  0  0  0  0  0  0  # atno 5218 bound_to 1931
  -11.1436  -22.5430  -31.0208 LP  0  0  0  0  0  0  0  0  0  0  0  0  # atno 5224 bound_to 1070
  -12.6279  -22.6410  -30.3469 LP  0  0  0  0  0  0  0  0  0  0  0  0  # atno 5225 bound_to 1070

$$$$
A_126|SEH_inhibs_minimized|sdf|14|dock6
  -GOLD-   41821 9183D 1   1.00000     0.00000

 53 57  0  0  0  0  0  0  0  0  1 V2000
  -11.6490  -31.9315  -33.4110 C   0  0  0  0  0  0  0  0  0  0  0  0
  -11.8612  -30.5696  -33.1972 C   0  0  0  0  0  0  0  0  0  0  0  0
  -10.9042  -32.3573  -34.5108 C   0  0  0  0  0  0  0  0  0  0  0  0
   -9.3123  -25.9034  -34.5083 C   0  0  0  0  0  0  0  0  0  0  0  0
  -10.3381  -25.1187  -35.0349 C   0  0  0  0  0  0  0  0  0  0  0  0
  -11.3286  -29.6333  -34.0835 C   0  0  0  0  0  0  0  0  0  0  0  0
  -10.3716  -31.4210  -35.3971 C   0  0  0  0  0  0  0  0  0  0  0  0
   -9.2174  -27.2514  -34.8543 C   0  0  0  0  0  0  0  0  0  0  0  0
  -11.1746  -27.0299  -36.2534 C   0  0  0  0  0  0  0  0  0  0  0  0
  -11.2693  -25.6819  -35.9074 C   0  0  0  0  0  0  0  0  0  0  0  0
  -10.5838  -30.0590  -35.1834 C   0  0  0  0  0  0  0  0  0  0  0  0
  -10.1486  -27.8147  -35.7269 C   0  0  0  0  0  0  0  0  0  0  0  0
  -13.5585  -25.3057  -36.9067 C   0  0  0  0  0  0  0  0  0  0  0  0
  -18.5093  -23.6218  -37.8489 C   0  0  0  0  0  0  0  0  0  0  0  0
  -18.0022  -25.9620  -38.5940 C   0  0  0  0  0  0  0  0  0  0  0  0
  -17.5507  -24.0317  -40.1299 C   0  0  0  0  0  0  0  0  0  0  0  0
  -16.6000  -24.8796  -36.8193 C   0  0  0  0  0  0  0  0  0  0  0  0
  -16.1482  -22.9473  -38.3568 C   0  0  0  0  0  0  0  0  0  0  0  0
  -15.6402  -25.2909  -39.1037 C   0  0  0  0  0  0  0  0  0  0  0  0
  -18.0235  -25.0065  -37.3888 C   0  0  0  0  0  0  0  0  0  0  0  0
  -17.5698  -23.0664  -38.9326 C   0  0  0  0  0  0  0  0  0  0  0  0
  -17.0600  -25.4190  -39.6819 C   0  0  0  0  0  0  0  0  0  0  0  0
  -15.6370  -24.3300  -37.8951 C   0  0  0  0  0  0  0  0  0  0  0  0
  -12.3092  -24.8857  -36.4413 N   0  0  0  0  0  0  0  0  0  0  0  0
  -14.3005  -24.2094  -37.3551 N   0  0  0  0  0  0  0  0  0  0  0  0
  -13.9801  -26.4594  -36.9339 O   0  0  0  0  0  0  0  0  0  0  0  0
  -10.0563  -29.1300  -36.0645 O   0  0  0  0  0  0  0  0  0  0  0  0
  -12.0632  -32.6608  -32.7208 H   0  0  0  0  0  0  0  0  0  0  0  0
  -12.4413  -30.2379  -32.3409 H   0  0  0  0  0  0  0  0  0  0  0  0
  -10.7394  -33.4181  -34.6765 H   0  0  0  0  0  0  0  0  0  0  0  0
   -8.5869  -25.4644  -33.8296 H   0  0  0  0  0  0  0  0  0  0  0  0
  -10.4025  -24.0696  -34.7577 H   0  0  0  0  0  0  0  0  0  0  0  0
  -11.4987  -28.5739  -33.9122 H   0  0  0  0  0  0  0  0  0  0  0  0
   -9.7938  -31.7586  -36.2531 H   0  0  0  0  0  0  0  0  0  0  0  0
   -8.4156  -27.8569  -34.4411 H   0  0  0  0  0  0  0  0  0  0  0  0
  -11.8980  -27.4734  -36.9339 H   0  0  0  0  0  0  0  0  0  0  0  0
  -19.5311  -23.6949  -38.2410 H   0  0  0  0  0  0  0  0  0  0  0  0
  -18.5444  -22.9341  -36.9950 H   0  0  0  0  0  0  0  0  0  0  0  0
  -17.6724  -26.9587  -38.2762 H   0  0  0  0  0  0  0  0  0  0  0  0
  -19.0150  -26.0760  -38.9992 H   0  0  0  0  0  0  0  0  0  0  0  0
  -18.5557  -24.1119  -40.5620 H   0  0  0  0  0  0  0  0  0  0  0  0
  -16.8959  -23.6390  -40.9175 H   0  0  0  0  0  0  0  0  0  0  0  0
  -16.6082  -24.2191  -35.9423 H   0  0  0  0  0  0  0  0  0  0  0  0
  -16.2522  -25.8585  -36.4633 H   0  0  0  0  0  0  0  0  0  0  0  0
  -15.4735  -22.5266  -39.1141 H   0  0  0  0  0  0  0  0  0  0  0  0
  -16.1446  -22.2409  -37.5161 H   0  0  0  0  0  0  0  0  0  0  0  0
  -15.2691  -26.2797  -38.8036 H   0  0  0  0  0  0  0  0  0  0  0  0
  -14.9542  -24.9279  -39.8805 H   0  0  0  0  0  0  0  0  0  0  0  0
  -18.6969  -25.3979  -36.6181 H   0  0  0  0  0  0  0  0  0  0  0  0
  -17.9213  -22.0807  -39.2574 H   0  0  0  0  0  0  0  0  0  0  0  0
  -17.0505  -26.1026  -40.5382 H   0  0  0  0  0  0  0  0  0  0  0  0
  -12.1207  -23.8876  -36.4899 H   0  0  0  0  0  0  0  0  0  0  0  0
  -13.8825  -23.2868  -37.2995 H   0  0  0  0  0  0  0  0  0  0  0  0
  1  2  2  0  0  0  0
  1  3  1  0  0  0  0
  2  6  1  0  0  0  0
  3  7  2  0  0  0  0
  4  5  2  0  0  0  0
  4  8  1  0  0  0  0
  5 10  1  0  0  0  0
  6 11  2  0  0  0  0
  7 11  1  0  0  0  0
  8 12  2  0  0  0  0
  9 10  2  0  0  0  0
  9 12  1  0  0  0  0
 10 24  1  0  0  0  0
 11 27  1  0  0  0  0
 12 27  1  0  0  0  0
 13 24  1  0  0  0  0
 13 25  1  0  0  0  0
 13 26  2  0  0  0  0
 14 20  1  0  0  0  0
 14 21  1  0  0  0  0
 15 20  1  0  0  0  0
 15 22  1  0  0  0  0
 16 21  1  0  0  0  0
 16 22  1  0  0  0  0
 17 20  1  0  0  0  0
 17 23  1  0  0  0  0
 18 21  1  0  0  0  0
 18 23  1  0  0  0  0
 19 22  1  0  0  0  0
 19 23  1  0  0  0  0
 23 25  1  0  0  0  0
  1 28  1  0  0  0  0
  2 29  1  0  0  0  0
  3 30  1  0  0  0  0
  4 31  1  0  0  0  0
  5 32  1  0  0  0  0
  6 33  1  0  0  0  0
  7 34  1  0  0  0  0
  8 35  1  0  0  0  0
  9 36  1  0  0  0  0
 14 37  1  0  0  0  0
 14 38  1  0  0  0  0
 15 39  1  0  0  0  0
 15 40  1  0  0  0  0
 16 41  1  0  0  0  0
 16 42  1  0  0  0  0
 17 43  1  0  0  0  0
 17 44  1  0  0  0  0
 18 45  1  0  0  0  0
 18 46  1  0  0  0  0
 19 47  1  0  0  0  0
 19 48  1  0  0  0  0
 20 49  1  0  0  0  0
 21 50  1  0  0  0  0
 22 51  1  0  0  0  0
 24 52  1  0  0  0  0
 25 53  1  0  0  0  0
M  END
> <Name>
A_126

> <SourceTag>
A_126

> <Gold.Version>
5.2

> <Gold.Id.Protein>
6HGV|6HGV_protein|mol2

> <Gold.Goldscore.Fitness>
64.3975

> <Gold.Goldscore.Internal.Vdw>
-3.2042

> <Gold.Goldscore.Internal.Torsion>
-4.1463

> <Gold.Goldscore.External.Vdw>
45.3899

> <Gold.Goldscore.Internal.HBond>
0.0000

> <Gold.Goldscore.External.HBond>
3.6039

> <Gold.Goldscore.Internal.Correction>
-5.7330

> <Gold.Goldscore.Hbonds>
donor molecule, donor type, donor heavy atom, donor atom, acceptor molecule, acceptor atom, score
      P1  H  1256  3854       L1    27  0.11
      L1  H    24    52       P1   854  0.27
      L1  H    25    53       P1   854  0.29

> <Gold.Goldscore.Internal.Vdw.Weighted>
-3.2042

> <Gold.Goldscore.Internal.Torsion.Weighted>
-4.1463

> <Gold.Goldscore.External.Vdw.Weighted>
62.4111

> <Gold.Goldscore.Internal.HBond.Weighted>
0.0000

> <Gold.Goldscore.External.HBond.Weighted>
3.6039

> <Gold.Goldscore.Internal.Correction.Weighted>
-5.7330

> <Gold.Protein.RotatedTorsions>
[ 3781 1176 1175 1172 ] final  154.43 input   60.00 | X-H torsion
[ 3847 1247 1246 1244 ] final  -30.73 input   60.00 | X-H torsion
[ 4507 1931 1930 1928 ] final  122.70 input   60.00 | X-H torsion
[ 3677 1070 1069 1066 ] final -121.36 input   60.00 | X-H torsion
[ 3525  925  924  922 ] final  -31.09 input   59.99 | X-H torsion
[ 4531 1957 1955 1953 ] final   66.16 input   60.00 | X-H torsion

> <Gold.Protein.ActiveResidues>
 PHE267  PRO268  MET310  ASP335  TRP336  MET339  TYR343  THR360  PRO361  ILE363 
 PRO371  SER374  ILE375  ASN378  PHE381  TYR383  GLN384  PHE387  LEU408  LEU417 
 MET419  LEU428  TYR466  MET469  ASN472  ASP496  VAL498  LEU499  MET503  HIS524 
 TRP525 

> <Gold.Protein.RotatedAtoms>
   -3.7675  -29.5147  -30.0047 H   0  0  0  0  0  0  0  0  0  0  0  0  # atno 3525 bound_to 925 
  -11.4463  -23.5645  -31.4508 H   0  0  0  0  0  0  0  0  0  0  0  0  # atno 3677 bound_to 1070
   -9.4393  -36.7465  -32.5561 H   0  0  0  0  0  0  0  0  0  0  0  0  # atno 3781 bound_to 1176
  -15.9977  -28.3155  -37.0959 H   0  0  0  0  0  0  0  0  0  0  0  0  # atno 3847 bound_to 1247
  -12.4527  -23.9122  -39.3944 H   0  0  0  0  0  0  0  0  0  0  0  0  # atno 4507 bound_to 1931
   -3.0218  -33.5093  -36.6751 H   0  0  0  0  0  0  0  0  0  0  0  0  # atno 4531 bound_to 1957
  -10.7946  -37.4263  -33.1470 LP  0  0  0  0  0  0  0  0  0  0  0  0  # atno 5205 bound_to 1176
   -9.8810  -36.4613  -34.0961 LP  0  0  0  0  0  0  0  0  0  0  0  0  # atno 5206 bound_to 1176
  -15.0802  -27.2188  -37.8728 LP  0  0  0  0  0  0  0  0  0  0  0  0  # atno 5215 bound_to 1247
  -14.4808  -28.7011  -37.5410 LP  0  0  0  0  0  0  0  0  0  0  0  0  # atno 5216 bound_to 1247
  -13.2312  -25.2998  -39.0527 LP  0  0  0  0  0  0  0  0  0  0  0  0  # atno 5217 bound_to 1931
  -13.5152  -24.5268  -40.4628 LP  0  0  0  0  0  0  0  0  0  0  0  0  # atno 5218 bound_to 1931
  -11.5972  -22.1882  -30.5958 LP  0  0  0  0  0  0  0  0  0  0  0  0  # atno 5224 bound_to 1070
  -12.8141  -23.2769  -30.6175 LP  0  0  0  0  0  0  0  0  0  0  0  0  # atno 5225 bound_to 1070

$$$$
A_100|SEH_inhibs_minimized|sdf|2|dock1
  -GOLD-   41821 8573D 1   1.00000     0.00000

 47 50  0  0  0  0  0  0  0  0  1 V2000
   -9.3048  -25.5736  -34.3969 C   0  0  0  0  0  0  0  0  0  0  0  0
   -8.9756  -26.8950  -34.6986 C   0  0  0  0  0  0  0  0  0  0  0  0
  -10.5002  -25.0283  -34.8653 C   0  0  0  0  0  0  0  0  0  0  0  0
  -11.0370  -27.1258  -35.9374 C   0  0  0  0  0  0  0  0  0  0  0  0
   -9.8416  -27.6712  -35.4689 C   0  0  0  0  0  0  0  0  0  0  0  0
  -11.3663  -25.8044  -35.6356 C   0  0  0  0  0  0  0  0  0  0  0  0
   -9.4970  -29.0486  -35.7826 C   0  0  0  0  0  0  0  0  0  0  0  0
  -13.4046  -25.7402  -37.1261 C   0  0  0  0  0  0  0  0  0  0  0  0
  -18.4434  -23.2975  -39.1950 C   0  0  0  0  0  0  0  0  0  0  0  0
  -17.9480  -25.7068  -38.7095 C   0  0  0  0  0  0  0  0  0  0  0  0
  -16.6070  -24.4682  -40.4371 C   0  0  0  0  0  0  0  0  0  0  0  0
  -17.3869  -23.9476  -37.0164 C   0  0  0  0  0  0  0  0  0  0  0  0
  -16.0485  -22.7115  -38.7407 C   0  0  0  0  0  0  0  0  0  0  0  0
  -18.0050  -24.6357  -39.8141 C   0  0  0  0  0  0  0  0  0  0  0  0
  -17.4422  -22.8668  -38.1092 C   0  0  0  0  0  0  0  0  0  0  0  0
  -16.9382  -25.2929  -37.6211 C   0  0  0  0  0  0  0  0  0  0  0  0
  -15.5914  -24.0491  -39.3563 C   0  0  0  0  0  0  0  0  0  0  0  0
  -15.5454  -25.1507  -38.2742 C   0  0  0  0  0  0  0  0  0  0  0  0
   -8.3689  -29.6737  -35.0143 C   0  0  0  0  0  0  0  0  0  0  0  0
  -12.5784  -25.2513  -36.1103 N   0  0  0  0  0  0  0  0  0  0  0  0
  -14.5129  -24.9035  -37.2956 N   0  0  0  0  0  0  0  0  0  0  0  0
  -10.0579  -29.7407  -36.6350 O   0  0  0  0  0  0  0  0  0  0  0  0
  -13.2201  -26.7534  -37.7963 O   0  0  0  0  0  0  0  0  0  0  0  0
   -8.6308  -24.9692  -33.7968 H   0  0  0  0  0  0  0  0  0  0  0  0
   -8.0410  -27.3087  -34.3289 H   0  0  0  0  0  0  0  0  0  0  0  0
  -10.7466  -23.9970  -34.6245 H   0  0  0  0  0  0  0  0  0  0  0  0
  -11.7121  -27.7309  -36.5392 H   0  0  0  0  0  0  0  0  0  0  0  0
  -18.5063  -22.5271  -39.9733 H   0  0  0  0  0  0  0  0  0  0  0  0
  -19.4465  -23.3957  -38.7622 H   0  0  0  0  0  0  0  0  0  0  0  0
  -18.9427  -25.8403  -38.2662 H   0  0  0  0  0  0  0  0  0  0  0  0
  -17.6598  -26.6736  -39.1401 H   0  0  0  0  0  0  0  0  0  0  0  0
  -16.2905  -25.4090  -40.9042 H   0  0  0  0  0  0  0  0  0  0  0  0
  -16.6399  -23.7138  -41.2330 H   0  0  0  0  0  0  0  0  0  0  0  0
  -16.7003  -23.6399  -36.2187 H   0  0  0  0  0  0  0  0  0  0  0  0
  -18.3752  -24.0601  -36.5532 H   0  0  0  0  0  0  0  0  0  0  0  0
  -16.0752  -21.9357  -39.5163 H   0  0  0  0  0  0  0  0  0  0  0  0
  -15.3298  -22.3735  -37.9846 H   0  0  0  0  0  0  0  0  0  0  0  0
  -18.7215  -24.9380  -40.5859 H   0  0  0  0  0  0  0  0  0  0  0  0
  -17.7593  -21.9136  -37.6718 H   0  0  0  0  0  0  0  0  0  0  0  0
  -16.9129  -26.0559  -36.8340 H   0  0  0  0  0  0  0  0  0  0  0  0
  -14.6018  -23.9213  -39.8110 H   0  0  0  0  0  0  0  0  0  0  0  0
  -15.2685  -26.1036  -38.7426 H   0  0  0  0  0  0  0  0  0  0  0  0
   -8.4636  -29.5740  -33.9214 H   0  0  0  0  0  0  0  0  0  0  0  0
   -7.3810  -29.2788  -35.2977 H   0  0  0  0  0  0  0  0  0  0  0  0
   -8.2858  -30.7638  -35.1721 H   0  0  0  0  0  0  0  0  0  0  0  0
  -12.8816  -24.3948  -35.6537 H   0  0  0  0  0  0  0  0  0  0  0  0
  -14.5953  -24.0835  -36.7021 H   0  0  0  0  0  0  0  0  0  0  0  0
  1  2  1  0  0  0  0
  1  3  2  0  0  0  0
  2  5  2  0  0  0  0
  3  6  1  0  0  0  0
  4  5  1  0  0  0  0
  4  6  2  0  0  0  0
  5  7  1  0  0  0  0
  6 20  1  0  0  0  0
  7 19  1  0  0  0  0
  7 22  2  0  0  0  0
  8 20  1  0  0  0  0
  8 21  1  0  0  0  0
  8 23  2  0  0  0  0
  9 14  1  0  0  0  0
  9 15  1  0  0  0  0
 10 14  1  0  0  0  0
 10 16  1  0  0  0  0
 11 14  1  0  0  0  0
 11 17  1  0  0  0  0
 12 15  1  0  0  0  0
 12 16  1  0  0  0  0
 13 15  1  0  0  0  0
 13 17  1  0  0  0  0
 16 18  1  0  0  0  0
 17 18  1  0  0  0  0
 18 21  1  0  0  0  0
  1 24  1  0  0  0  0
  2 25  1  0  0  0  0
  3 26  1  0  0  0  0
  4 27  1  0  0  0  0
  9 28  1  0  0  0  0
  9 29  1  0  0  0  0
 10 30  1  0  0  0  0
 10 31  1  0  0  0  0
 11 32  1  0  0  0  0
 11 33  1  0  0  0  0
 12 34  1  0  0  0  0
 12 35  1  0  0  0  0
 13 36  1  0  0  0  0
 13 37  1  0  0  0  0
 14 38  1  0  0  0  0
 15 39  1  0  0  0  0
 16 40  1  0  0  0  0
 17 41  1  0  0  0  0
 18 42  1  0  0  0  0
 19 43  1  0  0  0  0
 19 44  1  0  0  0  0
 19 45  1  0  0  0  0
 20 46  1  0  0  0  0
 21 47  1  0  0  0  0
M  END
> <Name>
A_100

> <SourceTag>
A_100

> <Gold.Version>
5.2

> <Gold.Id.Protein>
6HGV|6HGV_protein|mol2

> <Gold.Goldscore.Fitness>
60.1155

> <Gold.Goldscore.Internal.Vdw>
-6.5425

> <Gold.Goldscore.Internal.Torsion>
-2.2693

> <Gold.Goldscore.External.Vdw>
40.6898

> <Gold.Goldscore.Internal.HBond>
0.0000

> <Gold.Goldscore.External.HBond>
6.8196

> <Gold.Goldscore.Internal.Correction>
-6.1591

> <Gold.Goldscore.Hbonds>
donor molecule, donor type, donor heavy atom, donor atom, acceptor molecule, acceptor atom, score
      P1  H  1256  3854       L1    22  0.02
      P1  H  1247  3847       L1    23  0.15
      L1  H    20    46       P1   853  0.57
      L1  H    21    47       P1   853  0.51

> <Gold.Goldscore.Internal.Vdw.Weighted>
-6.5425

> <Gold.Goldscore.Internal.Torsion.Weighted>
-2.2693

> <Gold.Goldscore.External.Vdw.Weighted>
55.9485

> <Gold.Goldscore.Internal.HBond.Weighted>
0.0000

> <Gold.Goldscore.External.HBond.Weighted>
6.8196

> <Gold.Goldscore.Internal.Correction.Weighted>
-6.1591

> <Gold.Protein.RotatedTorsions>
[ 3781 1176 1175 1172 ] final -177.10 input   60.00 | X-H torsion
[ 3847 1247 1246 1244 ] final  139.18 input   60.00 | X-H torsion
[ 4507 1931 1930 1928 ] final  101.27 input   60.00 | X-H torsion
[ 3677 1070 1069 1066 ] final -117.06 input   60.00 | X-H torsion
[ 3525  925  924  922 ] final   63.52 input   59.99 | X-H torsion
[ 4531 1957 1955 1953 ] final   28.37 input   60.00 | X-H torsion

> <Gold.Protein.ActiveResidues>
 PHE267  PRO268  MET310  ASP335  TRP336  MET339  TYR343  THR360  PRO361  ILE363 
 PRO371  SER374  ILE375  ASN378  PHE381  TYR383  GLN384  PHE387  LEU408  LEU417 
 MET419  LEU428  TYR466  MET469  ASN472  ASP496  VAL498  LEU499  MET503  HIS524 
 TRP525 

> <Gold.Protein.RotatedAtoms>
   -2.7530  -29.8787  -30.8604 H   0  0  0  0  0  0  0  0  0  0  0  0  # atno 3525 bound_to 925 
  -11.5000  -23.6097  -31.4502 H   0  0  0  0  0  0  0  0  0  0  0  0  # atno 3677 bound_to 1070
   -9.2618  -36.4988  -32.9012 H   0  0  0  0  0  0  0  0  0  0  0  0  # atno 3781 bound_to 1176
  -14.3320  -27.9962  -37.8718 H   0  0  0  0  0  0  0  0  0  0  0  0  # atno 3847 bound_to 1247
  -12.4355  -24.1202  -39.1158 H   0  0  0  0  0  0  0  0  0  0  0  0  # atno 4507 bound_to 1931
   -3.0709  -32.9051  -36.6553 H   0  0  0  0  0  0  0  0  0  0  0  0  # atno 4531 bound_to 1957
  -10.5807  -37.4376  -32.7359 LP  0  0  0  0  0  0  0  0  0  0  0  0  # atno 5205 bound_to 1176
  -10.2737  -36.6994  -34.1598 LP  0  0  0  0  0  0  0  0  0  0  0  0  # atno 5206 bound_to 1176
  -15.4478  -28.8865  -37.0906 LP  0  0  0  0  0  0  0  0  0  0  0  0  # atno 5215 bound_to 1247
  -15.7907  -27.3550  -37.5418 LP  0  0  0  0  0  0  0  0  0  0  0  0  # atno 5216 bound_to 1247
  -13.4444  -25.3807  -39.3190 LP  0  0  0  0  0  0  0  0  0  0  0  0  # atno 5217 bound_to 1931
  -13.3193  -24.2364  -40.4772 LP  0  0  0  0  0  0  0  0  0  0  0  0  # atno 5218 bound_to 1931
  -11.5389  -22.2031  -30.6329 LP  0  0  0  0  0  0  0  0  0  0  0  0  # atno 5224 bound_to 1070
  -12.8183  -23.2165  -30.5810 LP  0  0  0  0  0  0  0  0  0  0  0  0  # atno 5225 bound_to 1070

$$$$
A_87|SEH_inhibs_minimized|sdf|52|dock2
  -GOLD-   4182110413D 1   1.00000     0.00000

 42 42  0  0  0  0  0  0  0  0  1 V2000
  -13.7705  -25.6271  -37.3231 C   0  0  0  0  0  0  0  0  0  0  0  0
  -11.1852  -26.6672  -33.5440 C   0  0  0  0  0  0  0  0  0  0  0  0
  -11.0576  -25.1936  -33.9210 C   0  0  0  0  0  0  0  0  0  0  0  0
  -12.0656  -27.4327  -34.5283 C   0  0  0  0  0  0  0  0  0  0  0  0
  -10.5796  -25.0210  -35.3633 C   0  0  0  0  0  0  0  0  0  0  0  0
  -11.5849  -27.2551  -35.9692 C   0  0  0  0  0  0  0  0  0  0  0  0
  -11.4488  -25.7812  -36.3739 C   0  0  0  0  0  0  0  0  0  0  0  0
  -20.9898  -23.5998  -40.1098 C   0  0  0  0  0  0  0  0  0  0  0  0
  -21.0423  -23.9689  -38.6353 C   0  0  0  0  0  0  0  0  0  0  0  0
  -19.7371  -23.6879  -37.8876 C   0  0  0  0  0  0  0  0  0  0  0  0
  -18.5697  -24.5605  -38.3556 C   0  0  0  0  0  0  0  0  0  0  0  0
  -17.3005  -24.2643  -37.5497 C   0  0  0  0  0  0  0  0  0  0  0  0
  -16.1154  -25.1178  -37.9908 C   0  0  0  0  0  0  0  0  0  0  0  0
  -12.7708  -25.1590  -36.4746 N   0  0  0  0  0  0  0  0  0  0  0  0
  -14.9288  -24.8539  -37.2238 N   0  0  0  0  0  0  0  0  0  0  0  0
  -13.6528  -26.5994  -38.0677 O   0  0  0  0  0  0  0  0  0  0  0  0
  -10.1894  -27.1256  -33.5067 H   0  0  0  0  0  0  0  0  0  0  0  0
  -11.6105  -26.7494  -32.5351 H   0  0  0  0  0  0  0  0  0  0  0  0
  -12.0243  -24.6949  -33.7920 H   0  0  0  0  0  0  0  0  0  0  0  0
  -10.3501  -24.7026  -33.2422 H   0  0  0  0  0  0  0  0  0  0  0  0
  -12.0598  -28.4988  -34.2715 H   0  0  0  0  0  0  0  0  0  0  0  0
  -13.1017  -27.0880  -34.4413 H   0  0  0  0  0  0  0  0  0  0  0  0
  -10.5662  -23.9465  -35.6167 H   0  0  0  0  0  0  0  0  0  0  0  0
   -9.5319  -25.3570  -35.4424 H   0  0  0  0  0  0  0  0  0  0  0  0
  -10.6174  -27.7696  -36.0963 H   0  0  0  0  0  0  0  0  0  0  0  0
  -12.2849  -27.7665  -36.6528 H   0  0  0  0  0  0  0  0  0  0  0  0
  -11.0067  -25.7116  -37.3645 H   0  0  0  0  0  0  0  0  0  0  0  0
  -20.3736  -24.3091  -40.6709 H   0  0  0  0  0  0  0  0  0  0  0  0
  -21.9889  -23.5805  -40.5549 H   0  0  0  0  0  0  0  0  0  0  0  0
  -20.5545  -22.6025  -40.2315 H   0  0  0  0  0  0  0  0  0  0  0  0
  -21.3108  -25.0267  -38.5332 H   0  0  0  0  0  0  0  0  0  0  0  0
  -21.8447  -23.3915  -38.1607 H   0  0  0  0  0  0  0  0  0  0  0  0
  -19.4733  -22.6287  -37.9937 H   0  0  0  0  0  0  0  0  0  0  0  0
  -19.9108  -23.8646  -36.8187 H   0  0  0  0  0  0  0  0  0  0  0  0
  -18.3761  -24.3825  -39.4188 H   0  0  0  0  0  0  0  0  0  0  0  0
  -18.8350  -25.6188  -38.2449 H   0  0  0  0  0  0  0  0  0  0  0  0
  -17.0470  -23.2009  -37.6414 H   0  0  0  0  0  0  0  0  0  0  0  0
  -17.4944  -24.4598  -36.4880 H   0  0  0  0  0  0  0  0  0  0  0  0
  -15.8772  -24.9459  -39.0453 H   0  0  0  0  0  0  0  0  0  0  0  0
  -16.3487  -26.1792  -37.8613 H   0  0  0  0  0  0  0  0  0  0  0  0
  -12.9678  -24.3471  -35.8978 H   0  0  0  0  0  0  0  0  0  0  0  0
  -14.9452  -24.0960  -36.5438 H   0  0  0  0  0  0  0  0  0  0  0  0
  1 14  1  0  0  0  0
  1 15  1  0  0  0  0
  1 16  2  0  0  0  0
  2  3  1  0  0  0  0
  2  4  1  0  0  0  0
  3  5  1  0  0  0  0
  4  6  1  0  0  0  0
  5  7  1  0  0  0  0
  6  7  1  0  0  0  0
  7 14  1  0  0  0  0
  8  9  1  0  0  0  0
  9 10  1  0  0  0  0
 10 11  1  0  0  0  0
 11 12  1  0  0  0  0
 12 13  1  0  0  0  0
 13 15  1  0  0  0  0
  2 17  1  0  0  0  0
  2 18  1  0  0  0  0
  3 19  1  0  0  0  0
  3 20  1  0  0  0  0
  4 21  1  0  0  0  0
  4 22  1  0  0  0  0
  5 23  1  0  0  0  0
  5 24  1  0  0  0  0
  6 25  1  0  0  0  0
  6 26  1  0  0  0  0
  7 27  1  0  0  0  0
  8 28  1  0  0  0  0
  8 29  1  0  0  0  0
  8 30  1  0  0  0  0
  9 31  1  0  0  0  0
  9 32  1  0  0  0  0
 10 33  1  0  0  0  0
 10 34  1  0  0  0  0
 11 35  1  0  0  0  0
 11 36  1  0  0  0  0
 12 37  1  0  0  0  0
 12 38  1  0  0  0  0
 13 39  1  0  0  0  0
 13 40  1  0  0  0  0
 14 41  1  0  0  0  0
 15 42  1  0  0  0  0
M  END
> <Name>
A_87

> <SourceTag>
A_87

> <Gold.Version>
5.2

> <Gold.Id.Protein>
6HGV|6HGV_protein|mol2

> <Gold.Goldscore.Fitness>
55.9960

> <Gold.Goldscore.Internal.Vdw>
-3.3834

> <Gold.Goldscore.Internal.Torsion>
-1.5853

> <Gold.Goldscore.External.Vdw>
37.0566

> <Gold.Goldscore.Internal.HBond>
0.0000

> <Gold.Goldscore.External.HBond>
6.3970

> <Gold.Goldscore.Internal.Correction>
-3.6148

> <Gold.Goldscore.Hbonds>
donor molecule, donor type, donor heavy atom, donor atom, acceptor molecule, acceptor atom, score
      P1  H  1247  3847       L1    16  0.11
      L1  H    14    41       P1   853  0.61
      L1  H    15    42       P1   853  0.41

> <Gold.Goldscore.Internal.Vdw.Weighted>
-3.3834

> <Gold.Goldscore.Internal.Torsion.Weighted>
-1.5853

> <Gold.Goldscore.External.Vdw.Weighted>
50.9528

> <Gold.Goldscore.Internal.HBond.Weighted>
0.0000

> <Gold.Goldscore.External.HBond.Weighted>
6.3970

> <Gold.Goldscore.Internal.Correction.Weighted>
-3.6148

> <Gold.Protein.RotatedTorsions>
[ 3781 1176 1175 1172 ] final  -25.35 input   60.00 | X-H torsion
[ 3847 1247 1246 1244 ] final  144.59 input   60.00 | X-H torsion
[ 4507 1931 1930 1928 ] final  106.48 input   60.00 | X-H torsion
[ 3677 1070 1069 1066 ] final  -74.30 input   60.00 | X-H torsion
[ 3525  925  924  922 ] final -144.36 input   59.99 | X-H torsion
[ 4531 1957 1955 1953 ] final  -77.55 input   60.00 | X-H torsion

> <Gold.Protein.ActiveResidues>
 PHE267  PRO268  MET310  ASP335  TRP336  MET339  TYR343  THR360  PRO361  ILE363 
 PRO371  SER374  ILE375  ASN378  PHE381  TYR383  GLN384  PHE387  LEU408  LEU417 
 MET419  LEU428  TYR466  MET469  ASN472  ASP496  VAL498  LEU499  MET503  HIS524 
 TRP525 

> <Gold.Protein.RotatedAtoms>
   -2.6614  -30.0836  -29.0570 H   0  0  0  0  0  0  0  0  0  0  0  0  # atno 3525 bound_to 925 
  -12.1177  -23.8453  -31.2806 H   0  0  0  0  0  0  0  0  0  0  0  0  # atno 3677 bound_to 1070
  -10.6348  -37.0136  -33.9723 H   0  0  0  0  0  0  0  0  0  0  0  0  # atno 3781 bound_to 1176
  -14.3543  -27.9138  -37.8946 H   0  0  0  0  0  0  0  0  0  0  0  0  # atno 3847 bound_to 1247
  -12.4316  -24.0626  -39.1782 H   0  0  0  0  0  0  0  0  0  0  0  0  # atno 4507 bound_to 1931
   -1.7180  -32.3198  -36.9024 H   0  0  0  0  0  0  0  0  0  0  0  0  # atno 4531 bound_to 1957
   -9.2811  -36.3272  -33.3855 LP  0  0  0  0  0  0  0  0  0  0  0  0  # atno 5205 bound_to 1176
  -10.1906  -37.2913  -32.4316 LP  0  0  0  0  0  0  0  0  0  0  0  0  # atno 5206 bound_to 1176
  -15.3669  -28.9177  -37.1104 LP  0  0  0  0  0  0  0  0  0  0  0  0  # atno 5215 bound_to 1247
  -15.8491  -27.4068  -37.4991 LP  0  0  0  0  0  0  0  0  0  0  0  0  # atno 5216 bound_to 1247
  -13.3964  -25.3711  -39.2487 LP  0  0  0  0  0  0  0  0  0  0  0  0  # atno 5217 bound_to 1931
  -13.3713  -24.3040  -40.4846 LP  0  0  0  0  0  0  0  0  0  0  0  0  # atno 5218 bound_to 1931
  -11.1310  -22.5731  -31.0442 LP  0  0  0  0  0  0  0  0  0  0  0  0  # atno 5224 bound_to 1070
  -12.6042  -22.6093  -30.3405 LP  0  0  0  0  0  0  0  0  0  0  0  0  # atno 5225 bound_to 1070

$$$$
A_121|SEH_inhibs_minimized|sdf|12|dock8
  -GOLD-   41821 9153D 1   1.00000     0.00000

 48 50  0  0  0  0  0  0  0  0  1 V2000
  -18.8867  -25.0934  -36.2355 C   0  0  0  0  0  0  0  0  0  0  0  0
  -17.8051  -25.2540  -38.3899 C   0  0  0  0  0  0  0  0  0  0  0  0
  -17.6532  -25.2536  -35.6043 C   0  0  0  0  0  0  0  0  0  0  0  0
  -16.5716  -25.4142  -37.7587 C   0  0  0  0  0  0  0  0  0  0  0  0
   -8.2773  -30.0577  -34.7574 C   0  0  0  0  0  0  0  0  0  0  0  0
  -10.5227  -30.9415  -34.8777 C   0  0  0  0  0  0  0  0  0  0  0  0
   -7.8093  -31.1470  -35.4923 C   0  0  0  0  0  0  0  0  0  0  0  0
  -10.0546  -32.0307  -35.6126 C   0  0  0  0  0  0  0  0  0  0  0  0
  -18.9627  -25.0937  -37.6282 C   0  0  0  0  0  0  0  0  0  0  0  0
  -16.4956  -25.4140  -36.3660 C   0  0  0  0  0  0  0  0  0  0  0  0
   -9.6341  -29.9551  -34.4501 C   0  0  0  0  0  0  0  0  0  0  0  0
   -8.6979  -32.1334  -35.9199 C   0  0  0  0  0  0  0  0  0  0  0  0
  -13.9807  -25.2331  -36.2142 C   0  0  0  0  0  0  0  0  0  0  0  0
  -10.9820  -26.3964  -36.4018 C   0  0  0  0  0  0  0  0  0  0  0  0
  -10.8306  -25.2153  -34.1686 C   0  0  0  0  0  0  0  0  0  0  0  0
  -10.8531  -27.7439  -35.6942 C   0  0  0  0  0  0  0  0  0  0  0  0
  -10.7021  -26.5656  -33.4666 C   0  0  0  0  0  0  0  0  0  0  0  0
  -11.5872  -25.3168  -35.4976 C   0  0  2  0  0  0  0  0  0  0  0  0
  -10.0835  -27.6208  -34.3815 C   0  0  1  0  0  0  0  0  0  0  0  0
  -20.2816  -24.9224  -38.3031 C   0  0  0  0  0  0  0  0  0  0  0  0
  -15.2446  -25.5762  -35.7262 N   0  0  0  0  0  0  0  0  0  0  0  0
  -12.9962  -25.5553  -35.2756 N   0  0  0  0  0  0  0  0  0  0  0  0
  -13.7299  -24.7216  -37.3029 O   0  0  0  0  0  0  0  0  0  0  0  0
  -10.0937  -28.8855  -33.7285 O   0  0  0  0  0  0  0  0  0  0  0  0
   -8.2484  -33.1795  -36.6257 F   0  0  0  0  0  0  0  0  0  0  0  0
  -21.0672  -23.9609  -37.7335 F   0  0  0  0  0  0  0  0  0  0  0  0
  -20.1810  -24.5668  -39.6180 F   0  0  0  0  0  0  0  0  0  0  0  0
  -21.0310  -26.0631  -38.2887 F   0  0  0  0  0  0  0  0  0  0  0  0
  -19.7837  -24.9713  -35.6342 H   0  0  0  0  0  0  0  0  0  0  0  0
  -17.8553  -25.2561  -39.4756 H   0  0  0  0  0  0  0  0  0  0  0  0
  -17.6056  -25.2515  -34.5182 H   0  0  0  0  0  0  0  0  0  0  0  0
  -15.6759  -25.5395  -38.3619 H   0  0  0  0  0  0  0  0  0  0  0  0
   -7.5801  -29.2925  -34.4272 H   0  0  0  0  0  0  0  0  0  0  0  0
  -11.5807  -30.8671  -34.6415 H   0  0  0  0  0  0  0  0  0  0  0  0
   -6.7530  -31.2273  -35.7317 H   0  0  0  0  0  0  0  0  0  0  0  0
  -10.7461  -32.7990  -35.9457 H   0  0  0  0  0  0  0  0  0  0  0  0
   -9.9852  -26.0715  -36.7261 H   0  0  0  0  0  0  0  0  0  0  0  0
  -11.5860  -26.5187  -37.3089 H   0  0  0  0  0  0  0  0  0  0  0  0
  -11.3275  -24.5035  -33.4985 H   0  0  0  0  0  0  0  0  0  0  0  0
   -9.8247  -24.8205  -34.3609 H   0  0  0  0  0  0  0  0  0  0  0  0
  -11.8477  -28.1678  -35.5040 H   0  0  0  0  0  0  0  0  0  0  0  0
  -10.3490  -28.4636  -36.3508 H   0  0  0  0  0  0  0  0  0  0  0  0
  -10.0916  -26.4578  -32.5616 H   0  0  0  0  0  0  0  0  0  0  0  0
  -11.6854  -26.9068  -33.1180 H   0  0  0  0  0  0  0  0  0  0  0  0
  -11.5329  -24.3508  -36.0122 H   0  0  0  0  0  0  0  0  0  0  0  0
   -9.0391  -27.3633  -34.5944 H   0  0  0  0  0  0  0  0  0  0  0  0
  -15.2737  -25.9926  -34.7989 H   0  0  0  0  0  0  0  0  0  0  0  0
  -13.2834  -25.9757  -34.3981 H   0  0  0  0  0  0  0  0  0  0  0  0
  1  3  1  0  0  0  0
  1  9  2  0  0  0  0
  2  4  2  0  0  0  0
  2  9  1  0  0  0  0
  3 10  2  0  0  0  0
  4 10  1  0  0  0  0
  5  7  1  0  0  0  0
  5 11  2  0  0  0  0
  6  8  2  0  0  0  0
  6 11  1  0  0  0  0
  7 12  2  0  0  0  0
  8 12  1  0  0  0  0
  9 20  1  0  0  0  0
 10 21  1  0  0  0  0
 11 24  1  0  0  0  0
 12 25  1  0  0  0  0
 13 21  1  0  0  0  0
 13 22  1  0  0  0  0
 13 23  2  0  0  0  0
 14 16  1  0  0  0  0
 14 18  1  0  0  0  0
 15 17  1  0  0  0  0
 15 18  1  0  0  0  0
 16 19  1  0  0  0  0
 17 19  1  0  0  0  0
 18 22  1  0  0  0  0
 19 24  1  0  0  0  0
 20 26  1  0  0  0  0
 20 27  1  0  0  0  0
 20 28  1  0  0  0  0
  1 29  1  0  0  0  0
  2 30  1  0  0  0  0
  3 31  1  0  0  0  0
  4 32  1  0  0  0  0
  5 33  1  0  0  0  0
  6 34  1  0  0  0  0
  7 35  1  0  0  0  0
  8 36  1  0  0  0  0
 14 37  1  0  0  0  0
 14 38  1  0  0  0  0
 15 39  1  0  0  0  0
 15 40  1  0  0  0  0
 16 41  1  0  0  0  0
 16 42  1  0  0  0  0
 17 43  1  0  0  0  0
 17 44  1  0  0  0  0
 18 45  1  0  0  0  0
 19 46  1  0  0  0  0
 21 47  1  0  0  0  0
 22 48  1  0  0  0  0
M  END
> <SourceTag>
A_121

> <Gold.Version>
5.2

> <Gold.Id.Protein>
6HGV|6HGV_protein|mol2

> <Gold.Goldscore.Fitness>
67.9752

> <Gold.Goldscore.Internal.Vdw>
-0.5067

> <Gold.Goldscore.Internal.Torsion>
-4.4879

> <Gold.Goldscore.External.Vdw>
49.3609

> <Gold.Goldscore.Internal.HBond>
0.0000

> <Gold.Goldscore.External.HBond>
0.6889

> <Gold.Goldscore.Internal.Correction>
-4.4097

> <Gold.Goldscore.Hbonds>
donor molecule, donor type, donor heavy atom, donor atom, acceptor molecule, acceptor atom, score
      P1  H  1931  4507       L1    23  0.34

> <Gold.Goldscore.Internal.Vdw.Weighted>
-0.5067

> <Gold.Goldscore.Internal.Torsion.Weighted>
-4.4879

> <Gold.Goldscore.External.Vdw.Weighted>
67.8713

> <Gold.Goldscore.Internal.HBond.Weighted>
0.0000

> <Gold.Goldscore.External.HBond.Weighted>
0.6889

> <Gold.Goldscore.Internal.Correction.Weighted>
-4.4097

> <Gold.Protein.RotatedTorsions>
[ 3781 1176 1175 1172 ] final -123.65 input   60.00 | X-H torsion
[ 3847 1247 1246 1244 ] final  148.23 input   60.00 | X-H torsion
[ 4507 1931 1930 1928 ] final   29.70 input   60.00 | X-H torsion
[ 3677 1070 1069 1066 ] final  -64.12 input   60.00 | X-H torsion
[ 3525  925  924  922 ] final -138.19 input   59.99 | X-H torsion
[ 4531 1957 1955 1953 ] final   -3.27 input   60.00 | X-H torsion

> <Gold.Protein.ActiveResidues>
 PHE267  PRO268  MET310  ASP335  TRP336  MET339  TYR343  THR360  PRO361  ILE363 
 PRO371  SER374  ILE375  ASN378  PHE381  TYR383  GLN384  PHE387  LEU408  LEU417 
 MET419  LEU428  TYR466  MET469  ASN472  ASP496  VAL498  LEU499  MET503  HIS524 
 TRP525 

> <Gold.Protein.RotatedAtoms>
   -2.7509  -30.0471  -29.0292 H   0  0  0  0  0  0  0  0  0  0  0  0  # atno 3525 bound_to 925 
  -12.2644  -23.8358  -31.2031 H   0  0  0  0  0  0  0  0  0  0  0  0  # atno 3677 bound_to 1070
   -9.4336  -36.3126  -33.7042 H   0  0  0  0  0  0  0  0  0  0  0  0  # atno 3781 bound_to 1176
  -14.3736  -27.8591  -37.9079 H   0  0  0  0  0  0  0  0  0  0  0  0  # atno 3847 bound_to 1247
  -12.9332  -25.0563  -38.8421 H   0  0  0  0  0  0  0  0  0  0  0  0  # atno 4507 bound_to 1931
   -2.8204  -32.4623  -36.6953 H   0  0  0  0  0  0  0  0  0  0  0  0  # atno 4531 bound_to 1957
   -9.8897  -37.1157  -32.3645 LP  0  0  0  0  0  0  0  0  0  0  0  0  # atno 5205 bound_to 1176
  -10.7917  -37.2088  -33.7225 LP  0  0  0  0  0  0  0  0  0  0  0  0  # atno 5206 bound_to 1176
  -15.3114  -28.9345  -37.1257 LP  0  0  0  0  0  0  0  0  0  0  0  0  # atno 5215 bound_to 1247
  -15.8852  -27.4450  -37.4703 LP  0  0  0  0  0  0  0  0  0  0  0  0  # atno 5216 bound_to 1247
  -13.6709  -24.8976  -40.2839 LP  0  0  0  0  0  0  0  0  0  0  0  0  # atno 5217 bound_to 1931
  -12.5917  -23.7769  -39.7879 LP  0  0  0  0  0  0  0  0  0  0  0  0  # atno 5218 bound_to 1931
  -11.0945  -22.7066  -31.1382 LP  0  0  0  0  0  0  0  0  0  0  0  0  # atno 5224 bound_to 1070
  -12.4929  -22.4852  -30.3246 LP  0  0  0  0  0  0  0  0  0  0  0  0  # atno 5225 bound_to 1070

$$$$
A_33|SEH_inhibs_minimized|sdf|27|dock5
  -GOLD-   41821 9463D 1   1.00000     0.00000

 42 43  0  0  0  0  0  0  0  0  1 V2000
   -9.8389  -33.0136  -35.1970 C   0  0  0  0  0  0  0  0  0  0  0  0
   -8.8359  -33.7175  -35.8634 C   0  0  0  0  0  0  0  0  0  0  0  0
  -10.3566  -25.3834  -34.8657 C   0  0  0  0  0  0  0  0  0  0  0  0
   -9.5981  -31.7157  -34.7460 C   0  0  0  0  0  0  0  0  0  0  0  0
   -7.5922  -33.1236  -36.0787 C   0  0  0  0  0  0  0  0  0  0  0  0
  -11.4199  -24.6370  -35.3616 C   0  0  0  0  0  0  0  0  0  0  0  0
  -10.8220  -27.0403  -36.5072 C   0  0  0  0  0  0  0  0  0  0  0  0
  -10.0454  -26.6091  -35.4439 C   0  0  0  0  0  0  0  0  0  0  0  0
   -8.3545  -31.1219  -34.9613 C   0  0  0  0  0  0  0  0  0  0  0  0
   -7.3515  -31.8258  -35.6276 C   0  0  0  0  0  0  0  0  0  0  0  0
  -12.1350  -25.1565  -36.4286 C   0  0  0  0  0  0  0  0  0  0  0  0
   -8.9156  -27.4298  -34.9370 C   0  0  0  0  0  0  0  0  0  0  0  0
   -8.1149  -29.7317  -34.4718 C   0  0  0  0  0  0  0  0  0  0  0  0
  -15.2876  -24.2190  -38.0645 C   0  0  0  0  0  0  0  0  0  0  0  0
  -14.2505  -25.1866  -37.5149 C   0  0  0  0  0  0  0  0  0  0  0  0
  -16.4637  -24.9360  -38.6857 C   0  0  0  0  0  0  0  0  0  0  0  0
   -5.0330  -31.7054  -35.0597 C   0  0  0  0  0  0  0  0  0  0  0  0
  -11.8625  -26.3431  -37.0163 N   0  0  0  0  0  0  0  0  0  0  0  0
   -9.1069  -28.8049  -34.9528 N   0  0  0  0  0  0  0  0  0  0  0  0
   -7.9053  -26.8685  -34.5218 O   0  0  0  0  0  0  0  0  0  0  0  0
   -6.1312  -31.2608  -35.8469 O   0  0  0  0  0  0  0  0  0  0  0  0
  -13.1876  -24.4398  -36.9346 O   0  0  0  0  0  0  0  0  0  0  0  0
  -17.4581  -24.0642  -38.9636 F   0  0  0  0  0  0  0  0  0  0  0  0
  -16.1159  -25.5426  -39.8404 F   0  0  0  0  0  0  0  0  0  0  0  0
  -16.9624  -25.8751  -37.8541 F   0  0  0  0  0  0  0  0  0  0  0  0
   -5.2023  -31.3795  -33.7606 F   0  0  0  0  0  0  0  0  0  0  0  0
   -3.9087  -31.0953  -35.4988 F   0  0  0  0  0  0  0  0  0  0  0  0
   -4.8565  -33.0383  -35.1793 F   0  0  0  0  0  0  0  0  0  0  0  0
  -10.8074  -33.4758  -35.0294 H   0  0  0  0  0  0  0  0  0  0  0  0
   -9.0232  -34.7279  -36.2147 H   0  0  0  0  0  0  0  0  0  0  0  0
   -9.7778  -25.0008  -34.0292 H   0  0  0  0  0  0  0  0  0  0  0  0
  -10.3862  -31.1755  -34.2277 H   0  0  0  0  0  0  0  0  0  0  0  0
   -6.8157  -33.6775  -36.5990 H   0  0  0  0  0  0  0  0  0  0  0  0
  -11.6757  -23.6796  -34.9204 H   0  0  0  0  0  0  0  0  0  0  0  0
  -10.6272  -27.9879  -37.0006 H   0  0  0  0  0  0  0  0  0  0  0  0
   -8.1291  -29.6922  -33.3743 H   0  0  0  0  0  0  0  0  0  0  0  0
   -7.1333  -29.3576  -34.7914 H   0  0  0  0  0  0  0  0  0  0  0  0
  -15.6368  -23.5607  -37.2602 H   0  0  0  0  0  0  0  0  0  0  0  0
  -14.8189  -23.5621  -38.8068 H   0  0  0  0  0  0  0  0  0  0  0  0
  -14.6853  -25.8296  -36.7432 H   0  0  0  0  0  0  0  0  0  0  0  0
  -13.8396  -25.8145  -38.3119 H   0  0  0  0  0  0  0  0  0  0  0  0
   -9.9982  -29.1907  -35.2548 H   0  0  0  0  0  0  0  0  0  0  0  0
  1  2  2  0  0  0  0
  1  4  1  0  0  0  0
  2  5  1  0  0  0  0
  3  6  1  0  0  0  0
  3  8  2  0  0  0  0
  4  9  2  0  0  0  0
  5 10  2  0  0  0  0
  6 11  2  0  0  0  0
  7  8  1  0  0  0  0
  7 18  2  0  0  0  0
  8 12  1  0  0  0  0
  9 10  1  0  0  0  0
  9 13  1  0  0  0  0
 10 21  1  0  0  0  0
 11 18  1  0  0  0  0
 11 22  1  0  0  0  0
 12 19  1  0  0  0  0
 12 20  2  0  0  0  0
 13 19  1  0  0  0  0
 14 15  1  0  0  0  0
 14 16  1  0  0  0  0
 15 22  1  0  0  0  0
 16 23  1  0  0  0  0
 16 24  1  0  0  0  0
 16 25  1  0  0  0  0
 17 21  1  0  0  0  0
 17 26  1  0  0  0  0
 17 27  1  0  0  0  0
 17 28  1  0  0  0  0
  1 29  1  0  0  0  0
  2 30  1  0  0  0  0
  3 31  1  0  0  0  0
  4 32  1  0  0  0  0
  5 33  1  0  0  0  0
  6 34  1  0  0  0  0
  7 35  1  0  0  0  0
 13 36  1  0  0  0  0
 13 37  1  0  0  0  0
 14 38  1  0  0  0  0
 14 39  1  0  0  0  0
 15 40  1  0  0  0  0
 15 41  1  0  0  0  0
 19 42  1  0  0  0  0
M  END
> <Name>
A_33

> <SourceTag>
A_33

> <Gold.Version>
5.2

> <Gold.Id.Protein>
6HGV|6HGV_protein|mol2

> <Gold.Goldscore.Fitness>
58.8677

> <Gold.Goldscore.Internal.Vdw>
-1.7058

> <Gold.Goldscore.Internal.Torsion>
-6.1465

> <Gold.Goldscore.External.Vdw>
45.1842

> <Gold.Goldscore.Internal.HBond>
0.0000

> <Gold.Goldscore.External.HBond>
0.0000

> <Gold.Goldscore.Internal.Correction>
-4.5917

> <Gold.Goldscore.Internal.Vdw.Weighted>
-1.7058

> <Gold.Goldscore.Internal.Torsion.Weighted>
-6.1465

> <Gold.Goldscore.External.Vdw.Weighted>
62.1283

> <Gold.Goldscore.Internal.HBond.Weighted>
0.0000

> <Gold.Goldscore.External.HBond.Weighted>
0.0000

> <Gold.Goldscore.Internal.Correction.Weighted>
-4.5917

> <Gold.Protein.RotatedTorsions>
[ 3781 1176 1175 1172 ] final  -23.83 input   60.00 | X-H torsion
[ 3847 1247 1246 1244 ] final  111.81 input   60.00 | X-H torsion
[ 4507 1931 1930 1928 ] final -106.62 input   60.00 | X-H torsion
[ 3677 1070 1069 1066 ] final -131.97 input   60.00 | X-H torsion
[ 3525  925  924  922 ] final  112.86 input   59.99 | X-H torsion
[ 4531 1957 1955 1953 ] final   32.14 input   60.00 | X-H torsion

> <Gold.Protein.ActiveResidues>
 PHE267  PRO268  MET310  ASP335  TRP336  MET339  TYR343  THR360  PRO361  ILE363 
 PRO371  SER374  ILE375  ASN378  PHE381  TYR383  GLN384  PHE387  LEU408  LEU417 
 MET419  LEU428  TYR466  MET469  ASN472  ASP496  VAL498  LEU499  MET503  HIS524 
 TRP525 

> <Gold.Protein.RotatedAtoms>
   -2.1691  -30.1724  -30.4320 H   0  0  0  0  0  0  0  0  0  0  0  0  # atno 3525 bound_to 925 
  -11.3264  -23.4401  -31.4389 H   0  0  0  0  0  0  0  0  0  0  0  0  # atno 3677 bound_to 1070
  -10.6484  -37.0282  -33.9575 H   0  0  0  0  0  0  0  0  0  0  0  0  # atno 3781 bound_to 1176
  -14.3375  -28.4092  -37.7117 H   0  0  0  0  0  0  0  0  0  0  0  0  # atno 3847 bound_to 1247
  -13.5855  -24.6773  -40.4078 H   0  0  0  0  0  0  0  0  0  0  0  0  # atno 4507 bound_to 1931
   -3.0838  -32.9654  -36.6539 H   0  0  0  0  0  0  0  0  0  0  0  0  # atno 4531 bound_to 1957
   -9.2882  -36.3231  -33.4090 LP  0  0  0  0  0  0  0  0  0  0  0  0  # atno 5205 bound_to 1176
  -10.1698  -37.2807  -32.4229 LP  0  0  0  0  0  0  0  0  0  0  0  0  # atno 5206 bound_to 1176
  -15.8077  -28.6262  -37.0489 LP  0  0  0  0  0  0  0  0  0  0  0  0  # atno 5215 bound_to 1247
  -15.4252  -27.1994  -37.7448 LP  0  0  0  0  0  0  0  0  0  0  0  0  # atno 5216 bound_to 1247
  -12.4912  -23.8353  -39.5467 LP  0  0  0  0  0  0  0  0  0  0  0  0  # atno 5217 bound_to 1931
  -13.1144  -25.2209  -38.9482 LP  0  0  0  0  0  0  0  0  0  0  0  0  # atno 5218 bound_to 1931
  -11.7490  -22.1714  -30.5116 LP  0  0  0  0  0  0  0  0  0  0  0  0  # atno 5224 bound_to 1070
  -12.7830  -23.4190  -30.7137 LP  0  0  0  0  0  0  0  0  0  0  0  0  # atno 5225 bound_to 1070

$$$$
A_47|SEH_inhibs_minimized|sdf|33|dock8
  -GOLD-   41821 9583D 1   1.00000     0.00000

 55 58  0  0  0  0  0  0  0  0  1 V2000
   -4.8788  -32.1976  -34.8750 C   0  0  0  0  0  0  0  0  0  0  0  0
   -6.1147  -33.5923  -33.3374 C   0  0  0  0  0  0  0  0  0  0  0  0
   -9.1918  -32.9734  -33.5463 C   0  0  0  0  0  0  0  0  0  0  0  0
   -8.9095  -34.4703  -35.4216 C   0  0  0  0  0  0  0  0  0  0  0  0
   -3.7042  -32.4627  -34.1714 C   0  0  0  0  0  0  0  0  0  0  0  0
   -4.9399  -33.8576  -32.6337 C   0  0  0  0  0  0  0  0  0  0  0  0
  -10.2476  -33.7566  -33.0800 C   0  0  0  0  0  0  0  0  0  0  0  0
   -9.9652  -35.2536  -34.9553 C   0  0  0  0  0  0  0  0  0  0  0  0
  -15.0660  -25.0202  -36.6458 C   0  0  0  0  0  0  0  0  0  0  0  0
  -14.7030  -25.6980  -35.5028 C   0  0  0  0  0  0  0  0  0  0  0  0
  -12.8690  -24.5366  -37.0568 C   0  0  0  0  0  0  0  0  0  0  0  0
   -6.0842  -32.7625  -34.4581 C   0  0  0  0  0  0  0  0  0  0  0  0
   -8.5226  -33.3302  -34.7171 C   0  0  0  0  0  0  0  0  0  0  0  0
   -3.7347  -33.2927  -33.0508 C   0  0  0  0  0  0  0  0  0  0  0  0
  -10.6342  -34.8968  -33.7846 C   0  0  0  0  0  0  0  0  0  0  0  0
  -12.5060  -25.2144  -35.9137 C   0  0  0  0  0  0  0  0  0  0  0  0
  -10.2742  -28.8213  -34.5841 C   0  0  0  0  0  0  0  0  0  0  0  0
  -10.8703  -25.1942  -33.9883 C   0  0  0  0  0  0  0  0  0  0  0  0
  -10.9857  -26.6281  -33.4847 C   0  0  0  0  0  0  0  0  0  0  0  0
  -10.3431  -26.6485  -35.8033 C   0  0  0  0  0  0  0  0  0  0  0  0
  -11.0454  -25.3171  -35.5095 C   0  0  1  0  0  0  0  0  0  0  0  0
   -7.7149  -30.9616  -35.3043 C   0  0  0  0  0  0  0  0  0  0  0  0
   -9.1349  -30.6685  -35.7941 C   0  0  0  0  0  0  0  0  0  0  0  0
   -7.3670  -32.4728  -35.2270 C   0  0  0  0  0  0  0  0  0  0  0  0
  -14.1555  -24.4272  -37.4433 N   0  0  0  0  0  0  0  0  0  0  0  0
  -13.4165  -25.8073  -35.1162 N   0  0  0  0  0  0  0  0  0  0  0  0
  -10.5224  -27.4506  -34.5988 N   0  0  0  0  0  0  0  0  0  0  0  0
   -9.4985  -29.2784  -35.6435 N   0  0  0  0  0  0  0  0  0  0  0  0
  -10.7056  -29.5668  -33.7005 O   0  0  0  0  0  0  0  0  0  0  0  0
   -2.6069  -33.5471  -32.3744 F   0  0  0  0  0  0  0  0  0  0  0  0
  -11.6484  -35.6488  -33.3375 F   0  0  0  0  0  0  0  0  0  0  0  0
   -4.8457  -31.5493  -35.7467 H   0  0  0  0  0  0  0  0  0  0  0  0
   -7.0494  -34.0363  -33.0050 H   0  0  0  0  0  0  0  0  0  0  0  0
   -8.8976  -32.0866  -32.9911 H   0  0  0  0  0  0  0  0  0  0  0  0
   -8.3943  -34.7555  -36.3350 H   0  0  0  0  0  0  0  0  0  0  0  0
   -2.7659  -32.0223  -34.4956 H   0  0  0  0  0  0  0  0  0  0  0  0
   -4.9637  -34.5034  -31.7610 H   0  0  0  0  0  0  0  0  0  0  0  0
  -10.7689  -33.4785  -32.1689 H   0  0  0  0  0  0  0  0  0  0  0  0
  -10.2666  -36.1409  -35.5040 H   0  0  0  0  0  0  0  0  0  0  0  0
  -16.1000  -24.9328  -36.9559 H   0  0  0  0  0  0  0  0  0  0  0  0
  -15.4354  -26.1741  -34.8626 H   0  0  0  0  0  0  0  0  0  0  0  0
  -12.1424  -24.0576  -37.7026 H   0  0  0  0  0  0  0  0  0  0  0  0
  -11.5912  -24.5262  -33.5067 H   0  0  0  0  0  0  0  0  0  0  0  0
   -9.8625  -24.8170  -33.7728 H   0  0  0  0  0  0  0  0  0  0  0  0
  -10.3778  -26.8042  -32.5924 H   0  0  0  0  0  0  0  0  0  0  0  0
  -12.0246  -26.9014  -33.2712 H   0  0  0  0  0  0  0  0  0  0  0  0
  -10.7261  -27.1782  -36.6819 H   0  0  0  0  0  0  0  0  0  0  0  0
   -9.2640  -26.5002  -35.9281 H   0  0  0  0  0  0  0  0  0  0  0  0
  -10.5164  -24.4649  -36.0232 H   0  0  0  0  0  0  0  0  0  0  0  0
   -7.0176  -30.4324  -35.9642 H   0  0  0  0  0  0  0  0  0  0  0  0
   -7.5923  -30.5178  -34.3067 H   0  0  0  0  0  0  0  0  0  0  0  0
   -9.8813  -31.2699  -35.2672 H   0  0  0  0  0  0  0  0  0  0  0  0
   -9.2118  -30.9021  -36.8612 H   0  0  0  0  0  0  0  0  0  0  0  0
   -7.2048  -32.7817  -36.2698 H   0  0  0  0  0  0  0  0  0  0  0  0
   -9.1759  -28.6109  -36.3367 H   0  0  0  0  0  0  0  0  0  0  0  0
  1  5  1  0  0  0  0
  1 12  2  0  0  0  0
  2  6  2  0  0  0  0
  2 12  1  0  0  0  0
  3  7  1  0  0  0  0
  3 13  2  0  0  0  0
  4  8  2  0  0  0  0
  4 13  1  0  0  0  0
  5 14  2  0  0  0  0
  6 14  1  0  0  0  0
  7 15  2  0  0  0  0
  8 15  1  0  0  0  0
  9 10  2  0  0  0  0
  9 25  1  0  0  0  0
 10 26  1  0  0  0  0
 11 16  1  0  0  0  0
 11 25  2  0  0  0  0
 12 24  1  0  0  0  0
 13 24  1  0  0  0  0
 14 30  1  0  0  0  0
 15 31  1  0  0  0  0
 16 21  1  0  0  0  0
 16 26  2  0  0  0  0
 17 27  1  0  0  0  0
 17 28  1  0  0  0  0
 17 29  2  0  0  0  0
 18 19  1  0  0  0  0
 18 21  1  0  0  0  0
 19 27  1  0  0  0  0
 20 21  1  0  0  0  0
 20 27  1  0  0  0  0
 22 23  1  0  0  0  0
 22 24  1  0  0  0  0
 23 28  1  0  0  0  0
  1 32  1  0  0  0  0
  2 33  1  0  0  0  0
  3 34  1  0  0  0  0
  4 35  1  0  0  0  0
  5 36  1  0  0  0  0
  6 37  1  0  0  0  0
  7 38  1  0  0  0  0
  8 39  1  0  0  0  0
  9 40  1  0  0  0  0
 10 41  1  0  0  0  0
 11 42  1  0  0  0  0
 18 43  1  0  0  0  0
 18 44  1  0  0  0  0
 19 45  1  0  0  0  0
 19 46  1  0  0  0  0
 20 47  1  0  0  0  0
 20 48  1  0  0  0  0
 21 49  1  0  0  0  0
 22 50  1  0  0  0  0
 22 51  1  0  0  0  0
 23 52  1  0  0  0  0
 23 53  1  0  0  0  0
 24 54  1  0  0  0  0
 28 55  1  0  0  0  0
M  END
> <Name>
A_47

> <SourceTag>
A_47

> <Gold.Version>
5.2

> <Gold.Id.Protein>
6HGV|6HGV_protein|mol2

> <Gold.Goldscore.Fitness>
64.3720

> <Gold.Goldscore.Internal.Vdw>
-6.9867

> <Gold.Goldscore.Internal.Torsion>
-4.6300

> <Gold.Goldscore.External.Vdw>
52.5899

> <Gold.Goldscore.Internal.HBond>
0.0000

> <Gold.Goldscore.External.HBond>
0.0388

> <Gold.Goldscore.Internal.Correction>
-3.6388

> <Gold.Goldscore.Hbonds>
donor molecule, donor type, donor heavy atom, donor atom, acceptor molecule, acceptor atom, score
      P1  H  1256  3854       L1    29  0.02

> <Gold.Goldscore.Internal.Vdw.Weighted>
-6.9867

> <Gold.Goldscore.Internal.Torsion.Weighted>
-4.6300

> <Gold.Goldscore.External.Vdw.Weighted>
72.3111

> <Gold.Goldscore.Internal.HBond.Weighted>
0.0000

> <Gold.Goldscore.External.HBond.Weighted>
0.0388

> <Gold.Goldscore.Internal.Correction.Weighted>
-3.6388

> <Gold.Protein.RotatedTorsions>
[ 3781 1176 1175 1172 ] final  107.58 input   60.00 | X-H torsion
[ 3847 1247 1246 1244 ] final  157.58 input   60.00 | X-H torsion
[ 4507 1931 1930 1928 ] final  -64.56 input   60.00 | X-H torsion
[ 3677 1070 1069 1066 ] final  -73.96 input   60.00 | X-H torsion
[ 3525  925  924  922 ] final   30.28 input   59.99 | X-H torsion
[ 4531 1957 1955 1953 ] final   68.69 input   60.00 | X-H torsion

> <Gold.Protein.ActiveResidues>
 PHE267  PRO268  MET310  ASP335  TRP336  MET339  TYR343  THR360  PRO361  ILE363 
 PRO371  SER374  ILE375  ASN378  PHE381  TYR383  GLN384  PHE387  LEU408  LEU417 
 MET419  LEU428  TYR466  MET469  ASN472  ASP496  VAL498  LEU499  MET503  HIS524 
 TRP525 

> <Gold.Protein.RotatedAtoms>
   -3.2418  -29.6723  -30.7868 H   0  0  0  0  0  0  0  0  0  0  0  0  # atno 3525 bound_to 925 
  -12.1229  -23.8454  -31.2782 H   0  0  0  0  0  0  0  0  0  0  0  0  # atno 3677 bound_to 1070
  -10.0102  -37.1920  -32.3833 H   0  0  0  0  0  0  0  0  0  0  0  0  # atno 3781 bound_to 1176
  -14.4379  -27.7233  -37.9347 H   0  0  0  0  0  0  0  0  0  0  0  0  # atno 3847 bound_to 1247
  -13.6905  -25.1841  -39.9793 H   0  0  0  0  0  0  0  0  0  0  0  0  # atno 4507 bound_to 1931
   -3.0047  -33.5468  -36.6790 H   0  0  0  0  0  0  0  0  0  0  0  0  # atno 4531 bound_to 1957
  -10.7424  -37.1337  -33.8354 LP  0  0  0  0  0  0  0  0  0  0  0  0  # atno 5205 bound_to 1176
   -9.3583  -36.3052  -33.5819 LP  0  0  0  0  0  0  0  0  0  0  0  0  # atno 5206 bound_to 1176
  -15.1673  -28.9618  -37.1719 LP  0  0  0  0  0  0  0  0  0  0  0  0  # atno 5215 bound_to 1247
  -15.9645  -27.5546  -37.3973 LP  0  0  0  0  0  0  0  0  0  0  0  0  # atno 5216 bound_to 1247
  -12.8235  -23.8160  -40.1359 LP  0  0  0  0  0  0  0  0  0  0  0  0  # atno 5217 bound_to 1931
  -12.6764  -24.7297  -38.7905 LP  0  0  0  0  0  0  0  0  0  0  0  0  # atno 5218 bound_to 1931
  -11.1293  -22.5774  -31.0475 LP  0  0  0  0  0  0  0  0  0  0  0  0  # atno 5224 bound_to 1070
  -12.6007  -22.6048  -30.3397 LP  0  0  0  0  0  0  0  0  0  0  0  0  # atno 5225 bound_to 1070

$$$$
A_59|SEH_inhibs_minimized|sdf|40|dock10
  -GOLD-   4182110163D 1   1.00000     0.00000

 68 70  0  0  0  0  0  0  0  0  1 V2000
   -7.5639  -29.5264  -33.9116 C   0  0  0  0  0  0  0  0  0  0  0  0
   -4.4164  -33.7992  -33.8990 C   0  0  0  0  0  0  0  0  0  0  0  0
   -5.1421  -32.9881  -31.6396 C   0  0  0  0  0  0  0  0  0  0  0  0
   -3.0767  -32.0466  -32.7058 C   0  0  0  0  0  0  0  0  0  0  0  0
   -6.4721  -32.3808  -33.6766 C   0  0  0  0  0  0  0  0  0  0  0  0
   -4.4046  -31.4384  -34.7438 C   0  0  0  0  0  0  0  0  0  0  0  0
   -5.1309  -30.6256  -32.4811 C   0  0  0  0  0  0  0  0  0  0  0  0
   -5.6318  -33.4840  -33.0108 C   0  0  0  0  0  0  0  0  0  0  0  0
   -3.5558  -32.5378  -34.0824 C   0  0  0  0  0  0  0  0  0  0  0  0
   -4.2850  -31.7223  -31.8110 C   0  0  0  0  0  0  0  0  0  0  0  0
   -5.6282  -31.1004  -33.8635 C   0  0  0  0  0  0  0  0  0  0  0  0
  -11.3537  -26.5400  -35.2051 C   0  0  0  0  0  0  0  0  0  0  0  0
  -10.1192  -27.3626  -35.5871 C   0  0  0  0  0  0  0  0  0  0  0  0
  -12.2982  -26.3722  -36.3997 C   0  0  0  0  0  0  0  0  0  0  0  0
   -9.3272  -27.8276  -34.3689 C   0  0  0  0  0  0  0  0  0  0  0  0
  -13.5546  -25.5903  -36.0360 C   0  0  0  0  0  0  0  0  0  0  0  0
  -15.8887  -25.7341  -35.8052 C   0  0  0  0  0  0  0  0  0  0  0  0
  -16.4818  -25.1602  -37.0775 C   0  0  0  0  0  0  0  0  0  0  0  0
  -18.4232  -24.1912  -37.9802 C   0  0  0  0  0  0  0  0  0  0  0  0
  -19.8690  -23.8527  -37.6716 C   0  0  0  0  0  0  0  0  0  0  0  0
  -21.8504  -23.0146  -38.6174 C   0  0  0  0  0  0  0  0  0  0  0  0
  -22.4466  -22.4705  -39.8895 C   0  0  0  0  0  0  0  0  0  0  0  0
   -6.4205  -30.0659  -34.4919 N   0  0  0  0  0  0  0  0  0  0  0  0
   -8.1305  -28.5511  -34.7285 N   0  0  0  0  0  0  0  0  0  0  0  0
   -8.0175  -29.8645  -32.8191 O   0  0  0  0  0  0  0  0  0  0  0  0
  -14.6935  -26.4340  -36.1251 O   0  0  0  0  0  0  0  0  0  0  0  0
  -17.8248  -24.7641  -36.8261 O   0  0  0  0  0  0  0  0  0  0  0  0
  -20.4903  -23.3533  -38.8497 O   0  0  0  0  0  0  0  0  0  0  0  0
  -22.2817  -23.3463  -40.9049 F   0  0  0  0  0  0  0  0  0  0  0  0
  -21.8587  -21.3096  -40.2483 F   0  0  0  0  0  0  0  0  0  0  0  0
  -23.7704  -22.2452  -39.7526 F   0  0  0  0  0  0  0  0  0  0  0  0
   -3.8180  -34.5982  -33.4442 H   0  0  0  0  0  0  0  0  0  0  0  0
   -4.7518  -34.1691  -34.8756 H   0  0  0  0  0  0  0  0  0  0  0  0
   -5.9998  -32.7743  -30.9901 H   0  0  0  0  0  0  0  0  0  0  0  0
   -4.5560  -33.7728  -31.1453 H   0  0  0  0  0  0  0  0  0  0  0  0
   -2.4543  -32.8142  -32.2299 H   0  0  0  0  0  0  0  0  0  0  0  0
   -2.4481  -31.1554  -32.8241 H   0  0  0  0  0  0  0  0  0  0  0  0
   -6.8480  -32.7339  -34.6458 H   0  0  0  0  0  0  0  0  0  0  0  0
   -7.3575  -32.1657  -33.0636 H   0  0  0  0  0  0  0  0  0  0  0  0
   -3.7926  -30.5409  -34.9038 H   0  0  0  0  0  0  0  0  0  0  0  0
   -4.7320  -31.7681  -35.7388 H   0  0  0  0  0  0  0  0  0  0  0  0
   -5.9831  -30.3678  -31.8387 H   0  0  0  0  0  0  0  0  0  0  0  0
   -4.5355  -29.7088  -32.5845 H   0  0  0  0  0  0  0  0  0  0  0  0
   -6.2405  -34.3860  -32.8823 H   0  0  0  0  0  0  0  0  0  0  0  0
   -2.6911  -32.7684  -34.7146 H   0  0  0  0  0  0  0  0  0  0  0  0
   -3.9377  -31.3750  -30.8316 H   0  0  0  0  0  0  0  0  0  0  0  0
  -11.8798  -27.0356  -34.3806 H   0  0  0  0  0  0  0  0  0  0  0  0
  -11.0465  -25.5510  -34.8450 H   0  0  0  0  0  0  0  0  0  0  0  0
   -9.4724  -26.7706  -36.2464 H   0  0  0  0  0  0  0  0  0  0  0  0
  -10.4371  -28.2457  -36.1545 H   0  0  0  0  0  0  0  0  0  0  0  0
  -11.7764  -25.8533  -37.2120 H   0  0  0  0  0  0  0  0  0  0  0  0
  -12.5841  -27.3651  -36.7676 H   0  0  0  0  0  0  0  0  0  0  0  0
   -9.0304  -26.9788  -33.7447 H   0  0  0  0  0  0  0  0  0  0  0  0
   -9.9369  -28.5029  -33.7605 H   0  0  0  0  0  0  0  0  0  0  0  0
  -13.6897  -24.7556  -36.7311 H   0  0  0  0  0  0  0  0  0  0  0  0
  -13.4881  -25.1926  -35.0183 H   0  0  0  0  0  0  0  0  0  0  0  0
  -16.5792  -26.4379  -35.3306 H   0  0  0  0  0  0  0  0  0  0  0  0
  -15.6392  -24.9326  -35.1037 H   0  0  0  0  0  0  0  0  0  0  0  0
  -16.4906  -25.9047  -37.8797 H   0  0  0  0  0  0  0  0  0  0  0  0
  -15.9190  -24.2789  -37.3987 H   0  0  0  0  0  0  0  0  0  0  0  0
  -17.8567  -23.2941  -38.2483 H   0  0  0  0  0  0  0  0  0  0  0  0
  -18.3660  -24.9204  -38.7936 H   0  0  0  0  0  0  0  0  0  0  0  0
  -19.9374  -23.0822  -36.8974 H   0  0  0  0  0  0  0  0  0  0  0  0
  -20.4115  -24.7469  -37.3508 H   0  0  0  0  0  0  0  0  0  0  0  0
  -21.8956  -22.2659  -37.8210 H   0  0  0  0  0  0  0  0  0  0  0  0
  -22.3866  -23.9120  -38.2947 H   0  0  0  0  0  0  0  0  0  0  0  0
   -6.1284  -29.7175  -35.3986 H   0  0  0  0  0  0  0  0  0  0  0  0
   -7.6603  -28.3048  -35.5938 H   0  0  0  0  0  0  0  0  0  0  0  0
  1 23  1  0  0  0  0
  1 24  1  0  0  0  0
  1 25  2  0  0  0  0
  2  8  1  0  0  0  0
  2  9  1  0  0  0  0
  3  8  1  0  0  0  0
  3 10  1  0  0  0  0
  4  9  1  0  0  0  0
  4 10  1  0  0  0  0
  5  8  1  0  0  0  0
  5 11  1  0  0  0  0
  6  9  1  0  0  0  0
  6 11  1  0  0  0  0
  7 10  1  0  0  0  0
  7 11  1  0  0  0  0
 11 23  1  0  0  0  0
 12 13  1  0  0  0  0
 12 14  1  0  0  0  0
 13 15  1  0  0  0  0
 14 16  1  0  0  0  0
 15 24  1  0  0  0  0
 16 26  1  0  0  0  0
 17 18  1  0  0  0  0
 17 26  1  0  0  0  0
 18 27  1  0  0  0  0
 19 20  1  0  0  0  0
 19 27  1  0  0  0  0
 20 28  1  0  0  0  0
 21 22  1  0  0  0  0
 21 28  1  0  0  0  0
 22 29  1  0  0  0  0
 22 30  1  0  0  0  0
 22 31  1  0  0  0  0
  2 32  1  0  0  0  0
  2 33  1  0  0  0  0
  3 34  1  0  0  0  0
  3 35  1  0  0  0  0
  4 36  1  0  0  0  0
  4 37  1  0  0  0  0
  5 38  1  0  0  0  0
  5 39  1  0  0  0  0
  6 40  1  0  0  0  0
  6 41  1  0  0  0  0
  7 42  1  0  0  0  0
  7 43  1  0  0  0  0
  8 44  1  0  0  0  0
  9 45  1  0  0  0  0
 10 46  1  0  0  0  0
 12 47  1  0  0  0  0
 12 48  1  0  0  0  0
 13 49  1  0  0  0  0
 13 50  1  0  0  0  0
 14 51  1  0  0  0  0
 14 52  1  0  0  0  0
 15 53  1  0  0  0  0
 15 54  1  0  0  0  0
 16 55  1  0  0  0  0
 16 56  1  0  0  0  0
 17 57  1  0  0  0  0
 17 58  1  0  0  0  0
 18 59  1  0  0  0  0
 18 60  1  0  0  0  0
 19 61  1  0  0  0  0
 19 62  1  0  0  0  0
 20 63  1  0  0  0  0
 20 64  1  0  0  0  0
 21 65  1  0  0  0  0
 21 66  1  0  0  0  0
 23 67  1  0  0  0  0
 24 68  1  0  0  0  0
M  END
> <Name>
A_59

> <SourceTag>
A_59

> <Gold.Version>
5.2

> <Gold.Id.Protein>
6HGV|6HGV_protein|mol2

> <Gold.Goldscore.Fitness>
65.6569

> <Gold.Goldscore.Internal.Vdw>
-11.7768

> <Gold.Goldscore.Internal.Torsion>
-6.6681

> <Gold.Goldscore.External.Vdw>
51.5271

> <Gold.Goldscore.Internal.HBond>
0.0000

> <Gold.Goldscore.External.HBond>
0.0000

> <Gold.Goldscore.Internal.Correction>
-13.2521

> <Gold.Goldscore.Internal.Vdw.Weighted>
-11.7768

> <Gold.Goldscore.Internal.Torsion.Weighted>
-6.6681

> <Gold.Goldscore.External.Vdw.Weighted>
70.8497

> <Gold.Goldscore.Internal.HBond.Weighted>
0.0000

> <Gold.Goldscore.External.HBond.Weighted>
0.0000

> <Gold.Goldscore.Internal.Correction.Weighted>
-13.2521

> <Gold.Protein.RotatedTorsions>
[ 3781 1176 1175 1172 ] final -116.53 input   60.00 | X-H torsion
[ 3847 1247 1246 1244 ] final   80.41 input   60.00 | X-H torsion
[ 4507 1931 1930 1928 ] final  -14.81 input   60.00 | X-H torsion
[ 3677 1070 1069 1066 ] final  -70.73 input   60.00 | X-H torsion
[ 3525  925  924  922 ] final  -85.56 input   59.99 | X-H torsion
[ 4531 1957 1955 1953 ] final  127.24 input   60.00 | X-H torsion

> <Gold.Protein.ActiveResidues>
 PHE267  PRO268  MET310  ASP335  TRP336  MET339  TYR343  THR360  PRO361  ILE363 
 PRO371  SER374  ILE375  ASN378  PHE381  TYR383  GLN384  PHE387  LEU408  LEU417 
 MET419  LEU428  TYR466  MET469  ASN472  ASP496  VAL498  LEU499  MET503  HIS524 
 TRP525 

> <Gold.Protein.RotatedAtoms>
   -3.4851  -29.7097  -29.2195 H   0  0  0  0  0  0  0  0  0  0  0  0  # atno 3525 bound_to 925 
  -12.1701  -23.8450  -31.2547 H   0  0  0  0  0  0  0  0  0  0  0  0  # atno 3677 bound_to 1070
   -9.5024  -36.3236  -33.7974 H   0  0  0  0  0  0  0  0  0  0  0  0  # atno 3781 bound_to 1176
  -14.5764  -28.7871  -37.4733 H   0  0  0  0  0  0  0  0  0  0  0  0  # atno 3847 bound_to 1247
  -13.4044  -25.3697  -39.2694 H   0  0  0  0  0  0  0  0  0  0  0  0  # atno 4507 bound_to 1931
   -2.2639  -34.0638  -36.8288 H   0  0  0  0  0  0  0  0  0  0  0  0  # atno 4531 bound_to 1957
   -9.7934  -37.0492  -32.3703 LP  0  0  0  0  0  0  0  0  0  0  0  0  # atno 5205 bound_to 1176
  -10.8187  -37.2642  -33.6229 LP  0  0  0  0  0  0  0  0  0  0  0  0  # atno 5206 bound_to 1176
  -16.0462  -28.1817  -37.1253 LP  0  0  0  0  0  0  0  0  0  0  0  0  # atno 5215 bound_to 1247
  -14.9462  -27.2633  -37.9084 LP  0  0  0  0  0  0  0  0  0  0  0  0  # atno 5216 bound_to 1247
  -13.3587  -24.2871  -40.4834 LP  0  0  0  0  0  0  0  0  0  0  0  0  # atno 5217 bound_to 1931
  -12.4293  -24.0717  -39.1580 LP  0  0  0  0  0  0  0  0  0  0  0  0  # atno 5218 bound_to 1931
  -11.1152  -22.6186  -31.0779 LP  0  0  0  0  0  0  0  0  0  0  0  0  # atno 5224 bound_to 1070
  -12.5673  -22.5641  -30.3329 LP  0  0  0  0  0  0  0  0  0  0  0  0  # atno 5225 bound_to 1070

$$$$
A_51|SEH_inhibs_minimized|sdf|37|dock5
  -GOLD-   4182110 53D 1   1.00000     0.00000

 66 69  0  0  0  0  0  0  0  0  1 V2000
  -17.1791  -25.3055  -35.4432 C   0  0  0  0  0  0  0  0  0  0  0  0
  -17.4701  -24.7130  -37.7673 C   0  0  0  0  0  0  0  0  0  0  0  0
  -15.8000  -25.3839  -35.6358 C   0  0  0  0  0  0  0  0  0  0  0  0
  -16.0909  -24.7913  -37.9600 C   0  0  0  0  0  0  0  0  0  0  0  0
  -18.0144  -24.9698  -36.5089 C   0  0  0  0  0  0  0  0  0  0  0  0
  -15.2559  -25.1267  -36.8942 C   0  0  0  0  0  0  0  0  0  0  0  0
  -19.4524  -24.8871  -36.3083 C   0  0  0  0  0  0  0  0  0  0  0  0
  -11.7984  -25.5534  -35.8415 C   0  0  0  0  0  0  0  0  0  0  0  0
   -7.7002  -29.0198  -34.3494 C   0  0  0  0  0  0  0  0  0  0  0  0
   -3.9917  -32.1699  -32.2468 C   0  0  0  0  0  0  0  0  0  0  0  0
   -3.5815  -32.3201  -34.7164 C   0  0  0  0  0  0  0  0  0  0  0  0
   -5.6621  -33.3122  -33.7284 C   0  0  0  0  0  0  0  0  0  0  0  0
   -4.1367  -30.1102  -33.6696 C   0  0  0  0  0  0  0  0  0  0  0  0
   -6.2193  -31.1035  -32.6806 C   0  0  0  0  0  0  0  0  0  0  0  0
   -5.8090  -31.2543  -35.1539 C   0  0  0  0  0  0  0  0  0  0  0  0
   -3.3975  -31.4439  -33.4655 C   0  0  0  0  0  0  0  0  0  0  0  0
   -5.4887  -32.4412  -32.4725 C   0  0  0  0  0  0  0  0  0  0  0  0
   -5.0764  -32.5924  -34.9552 C   0  0  0  0  0  0  0  0  0  0  0  0
   -5.6427  -30.3603  -33.9060 C   0  0  0  0  0  0  0  0  0  0  0  0
  -22.0445  -23.8886  -38.7119 C   0  0  0  0  0  0  0  0  0  0  0  0
  -13.7720  -25.2113  -37.1010 C   0  0  0  0  0  0  0  0  0  0  0  0
  -11.2654  -25.5190  -34.4261 C   0  0  0  0  0  0  0  0  0  0  0  0
   -9.7823  -25.8846  -34.3318 C   0  0  0  0  0  0  0  0  0  0  0  0
   -9.4727  -27.3184  -34.7585 C   0  0  0  0  0  0  0  0  0  0  0  0
  -21.5159  -24.3097  -37.3572 C   0  0  0  0  0  0  0  0  0  0  0  0
   -6.3351  -29.1044  -34.0951 N   0  0  0  0  0  0  0  0  0  0  0  0
   -8.1050  -27.6946  -34.4892 N   0  0  0  0  0  0  0  0  0  0  0  0
  -20.0308  -25.1840  -35.2545 O   0  0  0  0  0  0  0  0  0  0  0  0
  -11.1487  -25.8601  -36.8317 O   0  0  0  0  0  0  0  0  0  0  0  0
   -8.4542  -29.9879  -34.4390 O   0  0  0  0  0  0  0  0  0  0  0  0
  -20.0920  -24.4376  -37.4314 O   0  0  0  0  0  0  0  0  0  0  0  0
  -13.1227  -25.2189  -35.8255 O   0  0  0  0  0  0  0  0  0  0  0  0
  -17.5928  -25.5070  -34.4585 H   0  0  0  0  0  0  0  0  0  0  0  0
  -18.1116  -24.4495  -38.6042 H   0  0  0  0  0  0  0  0  0  0  0  0
  -15.1566  -25.6456  -34.7998 H   0  0  0  0  0  0  0  0  0  0  0  0
  -15.6756  -24.5887  -38.9436 H   0  0  0  0  0  0  0  0  0  0  0  0
   -3.4607  -33.1150  -32.0789 H   0  0  0  0  0  0  0  0  0  0  0  0
   -3.8531  -31.5621  -31.3443 H   0  0  0  0  0  0  0  0  0  0  0  0
   -3.1476  -31.8203  -35.5911 H   0  0  0  0  0  0  0  0  0  0  0  0
   -3.0436  -33.2681  -34.5915 H   0  0  0  0  0  0  0  0  0  0  0  0
   -5.1611  -34.2777  -33.5869 H   0  0  0  0  0  0  0  0  0  0  0  0
   -6.7255  -33.5263  -33.8917 H   0  0  0  0  0  0  0  0  0  0  0  0
   -3.9907  -29.4666  -32.7921 H   0  0  0  0  0  0  0  0  0  0  0  0
   -3.7031  -29.5706  -34.5220 H   0  0  0  0  0  0  0  0  0  0  0  0
   -7.2938  -31.2832  -32.8167 H   0  0  0  0  0  0  0  0  0  0  0  0
   -6.1235  -30.4824  -31.7802 H   0  0  0  0  0  0  0  0  0  0  0  0
   -5.4164  -30.7430  -36.0426 H   0  0  0  0  0  0  0  0  0  0  0  0
   -6.8733  -31.4393  -35.3510 H   0  0  0  0  0  0  0  0  0  0  0  0
   -2.3312  -31.2544  -33.3000 H   0  0  0  0  0  0  0  0  0  0  0  0
   -5.9061  -32.9595  -31.6021 H   0  0  0  0  0  0  0  0  0  0  0  0
   -5.2010  -33.2183  -35.8458 H   0  0  0  0  0  0  0  0  0  0  0  0
  -21.5705  -22.9608  -39.0443 H   0  0  0  0  0  0  0  0  0  0  0  0
  -21.8584  -24.6679  -39.4581 H   0  0  0  0  0  0  0  0  0  0  0  0
  -23.1284  -23.7374  -38.6731 H   0  0  0  0  0  0  0  0  0  0  0  0
  -13.5056  -26.1246  -37.6441 H   0  0  0  0  0  0  0  0  0  0  0  0
  -13.4101  -24.3564  -37.6825 H   0  0  0  0  0  0  0  0  0  0  0  0
  -11.4348  -24.5229  -34.0031 H   0  0  0  0  0  0  0  0  0  0  0  0
  -11.8492  -26.2418  -33.8447 H   0  0  0  0  0  0  0  0  0  0  0  0
   -9.2134  -25.1918  -34.9644 H   0  0  0  0  0  0  0  0  0  0  0  0
   -9.4305  -25.7381  -33.3035 H   0  0  0  0  0  0  0  0  0  0  0  0
  -10.1079  -28.0169  -34.2045 H   0  0  0  0  0  0  0  0  0  0  0  0
   -9.6553  -27.4701  -35.8263 H   0  0  0  0  0  0  0  0  0  0  0  0
  -21.9415  -25.2735  -37.0620 H   0  0  0  0  0  0  0  0  0  0  0  0
  -21.7637  -23.5611  -36.5987 H   0  0  0  0  0  0  0  0  0  0  0  0
   -5.7998  -28.2446  -34.0398 H   0  0  0  0  0  0  0  0  0  0  0  0
   -7.4202  -26.9575  -34.3532 H   0  0  0  0  0  0  0  0  0  0  0  0
  1  3  1  0  0  0  0
  1  5  2  0  0  0  0
  2  4  2  0  0  0  0
  2  5  1  0  0  0  0
  3  6  2  0  0  0  0
  4  6  1  0  0  0  0
  5  7  1  0  0  0  0
  6 21  1  0  0  0  0
  7 28  2  0  0  0  0
  7 31  1  0  0  0  0
  8 22  1  0  0  0  0
  8 29  2  0  0  0  0
  8 32  1  0  0  0  0
  9 26  1  0  0  0  0
  9 27  1  0  0  0  0
  9 30  2  0  0  0  0
 10 16  1  0  0  0  0
 10 17  1  0  0  0  0
 11 16  1  0  0  0  0
 11 18  1  0  0  0  0
 12 17  1  0  0  0  0
 12 18  1  0  0  0  0
 13 16  1  0  0  0  0
 13 19  1  0  0  0  0
 14 17  1  0  0  0  0
 14 19  1  0  0  0  0
 15 18  1  0  0  0  0
 15 19  1  0  0  0  0
 19 26  1  0  0  0  0
 20 25  1  0  0  0  0
 21 32  1  0  0  0  0
 22 23  1  0  0  0  0
 23 24  1  0  0  0  0
 24 27  1  0  0  0  0
 25 31  1  0  0  0  0
  1 33  1  0  0  0  0
  2 34  1  0  0  0  0
  3 35  1  0  0  0  0
  4 36  1  0  0  0  0
 10 37  1  0  0  0  0
 10 38  1  0  0  0  0
 11 39  1  0  0  0  0
 11 40  1  0  0  0  0
 12 41  1  0  0  0  0
 12 42  1  0  0  0  0
 13 43  1  0  0  0  0
 13 44  1  0  0  0  0
 14 45  1  0  0  0  0
 14 46  1  0  0  0  0
 15 47  1  0  0  0  0
 15 48  1  0  0  0  0
 16 49  1  0  0  0  0
 17 50  1  0  0  0  0
 18 51  1  0  0  0  0
 20 52  1  0  0  0  0
 20 53  1  0  0  0  0
 20 54  1  0  0  0  0
 21 55  1  0  0  0  0
 21 56  1  0  0  0  0
 22 57  1  0  0  0  0
 22 58  1  0  0  0  0
 23 59  1  0  0  0  0
 23 60  1  0  0  0  0
 24 61  1  0  0  0  0
 24 62  1  0  0  0  0
 25 63  1  0  0  0  0
 25 64  1  0  0  0  0
 26 65  1  0  0  0  0
 27 66  1  0  0  0  0
M  END
> <Name>
A_51

> <SourceTag>
A_51

> <Gold.Version>
5.2

> <Gold.Id.Protein>
6HGV|6HGV_protein|mol2

> <Gold.Goldscore.Fitness>
87.4264

> <Gold.Goldscore.Internal.Vdw>
-4.8808

> <Gold.Goldscore.Internal.Torsion>
-2.7892

> <Gold.Goldscore.External.Vdw>
64.3033

> <Gold.Goldscore.Internal.HBond>
0.0000

> <Gold.Goldscore.External.HBond>
0.0000

> <Gold.Goldscore.Internal.Correction>
-6.6794

> <Gold.Goldscore.Internal.Vdw.Weighted>
-4.8808

> <Gold.Goldscore.Internal.Torsion.Weighted>
-2.7892

> <Gold.Goldscore.External.Vdw.Weighted>
88.4170

> <Gold.Goldscore.Internal.HBond.Weighted>
0.0000

> <Gold.Goldscore.External.HBond.Weighted>
0.0000

> <Gold.Goldscore.Internal.Correction.Weighted>
-6.6794

> <Gold.Protein.RotatedTorsions>
[ 3781 1176 1175 1172 ] final -150.26 input   60.00 | X-H torsion
[ 3847 1247 1246 1244 ] final  -76.18 input   60.00 | X-H torsion
[ 4507 1931 1930 1928 ] final -163.13 input   60.00 | X-H torsion
[ 3677 1070 1069 1066 ] final -112.82 input   60.00 | X-H torsion
[ 3525  925  924  922 ] final  -25.55 input   59.99 | X-H torsion
[ 4531 1957 1955 1953 ] final  123.81 input   60.00 | X-H torsion

> <Gold.Protein.ActiveResidues>
 PHE267  PRO268  MET310  ASP335  TRP336  MET339  TYR343  THR360  PRO361  ILE363 
 PRO371  SER374  ILE375  ASN378  PHE381  TYR383  GLN384  PHE387  LEU408  LEU417 
 MET419  LEU428  TYR466  MET469  ASN472  ASP496  VAL498  LEU499  MET503  HIS524 
 TRP525 

> <Gold.Protein.RotatedAtoms>
   -3.7546  -29.5121  -30.0942 H   0  0  0  0  0  0  0  0  0  0  0  0  # atno 3525 bound_to 925 
  -11.5555  -23.6511  -31.4464 H   0  0  0  0  0  0  0  0  0  0  0  0  # atno 3677 bound_to 1070
   -9.2658  -36.3487  -33.3091 H   0  0  0  0  0  0  0  0  0  0  0  0  # atno 3781 bound_to 1176
  -16.0012  -27.6395  -37.3531 H   0  0  0  0  0  0  0  0  0  0  0  0  # atno 3847 bound_to 1247
  -13.0537  -23.9707  -40.3484 H   0  0  0  0  0  0  0  0  0  0  0  0  # atno 4507 bound_to 1931
   -2.3186  -34.0571  -36.8183 H   0  0  0  0  0  0  0  0  0  0  0  0  # atno 4531 bound_to 1957
  -10.2573  -37.3237  -32.4639 LP  0  0  0  0  0  0  0  0  0  0  0  0  # atno 5205 bound_to 1176
  -10.5931  -36.9645  -34.0211 LP  0  0  0  0  0  0  0  0  0  0  0  0  # atno 5206 bound_to 1176
  -14.4863  -27.6338  -37.9472 LP  0  0  0  0  0  0  0  0  0  0  0  0  # atno 5215 bound_to 1247
  -15.0712  -28.9669  -37.2076 LP  0  0  0  0  0  0  0  0  0  0  0  0  # atno 5216 bound_to 1247
  -12.5191  -24.4300  -38.8817 LP  0  0  0  0  0  0  0  0  0  0  0  0  # atno 5217 bound_to 1931
  -13.6220  -25.3378  -39.6731 LP  0  0  0  0  0  0  0  0  0  0  0  0  # atno 5218 bound_to 1931
  -11.4837  -22.2222  -30.6710 LP  0  0  0  0  0  0  0  0  0  0  0  0  # atno 5224 bound_to 1070
  -12.8177  -23.1557  -30.5467 LP  0  0  0  0  0  0  0  0  0  0  0  0  # atno 5225 bound_to 1070

$$$$
A_19|SEH_inhibs_minimized|sdf|18|dock4
  -GOLD-   41821 9273D 1   1.00000     0.00000

 63 66  0  0  0  0  0  0  0  0  1 V2000
  -10.3724  -25.1526  -35.0449 C   0  0  0  0  0  0  0  0  0  0  0  0
  -11.0483  -26.9755  -36.4794 C   0  0  0  0  0  0  0  0  0  0  0  0
   -9.3493  -25.9434  -34.5220 C   0  0  0  0  0  0  0  0  0  0  0  0
  -10.0252  -27.7663  -35.9565 C   0  0  0  0  0  0  0  0  0  0  0  0
  -11.2219  -25.6685  -36.0237 C   0  0  0  0  0  0  0  0  0  0  0  0
   -9.1757  -27.2502  -34.9778 C   0  0  0  0  0  0  0  0  0  0  0  0
  -13.5153  -25.2776  -37.0084 C   0  0  0  0  0  0  0  0  0  0  0  0
  -17.9919  -25.8892  -38.6297 C   0  0  0  0  0  0  0  0  0  0  0  0
  -17.5172  -24.0048  -40.2150 C   0  0  0  0  0  0  0  0  0  0  0  0
  -18.4501  -23.5225  -37.9377 C   0  0  0  0  0  0  0  0  0  0  0  0
  -15.6224  -25.2731  -39.1717 C   0  0  0  0  0  0  0  0  0  0  0  0
  -16.5564  -24.7904  -36.8920 C   0  0  0  0  0  0  0  0  0  0  0  0
  -16.0814  -22.9027  -38.4792 C   0  0  0  0  0  0  0  0  0  0  0  0
  -17.0484  -25.3895  -39.7369 C   0  0  0  0  0  0  0  0  0  0  0  0
  -17.9863  -24.9049  -37.4479 C   0  0  0  0  0  0  0  0  0  0  0  0
  -17.5093  -23.0103  -39.0415 C   0  0  0  0  0  0  0  0  0  0  0  0
  -15.5924  -24.2821  -37.9870 C   0  0  0  0  0  0  0  0  0  0  0  0
   -7.0578  -33.2342  -29.7035 C   0  0  0  0  0  0  0  0  0  0  0  0
   -6.1338  -32.0445  -29.8539 C   0  0  0  0  0  0  0  0  0  0  0  0
   -7.7346  -29.1207  -35.2626 C   0  0  0  0  0  0  0  0  0  0  0  0
   -6.3575  -29.5483  -34.7928 C   0  0  0  0  0  0  0  0  0  0  0  0
   -5.2629  -30.5215  -31.4175 C   0  0  0  0  0  0  0  0  0  0  0  0
   -5.1466  -30.2504  -32.9050 C   0  0  0  0  0  0  0  0  0  0  0  0
  -12.2591  -24.8662  -36.5538 N   0  0  0  0  0  0  0  0  0  0  0  0
  -14.2509  -24.1766  -37.4563 N   0  0  0  0  0  0  0  0  0  0  0  0
  -13.9458  -26.4281  -37.0275 O   0  0  0  0  0  0  0  0  0  0  0  0
   -8.1775  -28.0220  -34.4672 O   0  0  0  0  0  0  0  0  0  0  0  0
   -6.1229  -31.6362  -31.2147 O   0  0  0  0  0  0  0  0  0  0  0  0
   -6.3989  -29.7880  -33.3913 O   0  0  0  0  0  0  0  0  0  0  0  0
  -10.4984  -24.1355  -34.6825 H   0  0  0  0  0  0  0  0  0  0  0  0
  -11.7039  -27.3880  -37.2421 H   0  0  0  0  0  0  0  0  0  0  0  0
   -8.6906  -25.5361  -33.7599 H   0  0  0  0  0  0  0  0  0  0  0  0
   -9.8944  -28.7835  -36.3156 H   0  0  0  0  0  0  0  0  0  0  0  0
  -19.0097  -25.9945  -39.0250 H   0  0  0  0  0  0  0  0  0  0  0  0
  -17.6776  -26.8839  -38.2903 H   0  0  0  0  0  0  0  0  0  0  0  0
  -16.8614  -23.6432  -41.0165 H   0  0  0  0  0  0  0  0  0  0  0  0
  -18.5269  -24.0770  -40.6378 H   0  0  0  0  0  0  0  0  0  0  0  0
  -19.4763  -23.5856  -38.3204 H   0  0  0  0  0  0  0  0  0  0  0  0
  -18.4657  -22.8144  -37.1001 H   0  0  0  0  0  0  0  0  0  0  0  0
  -15.2682  -26.2613  -38.8504 H   0  0  0  0  0  0  0  0  0  0  0  0
  -14.9347  -24.9418  -39.9610 H   0  0  0  0  0  0  0  0  0  0  0  0
  -16.5451  -24.1098  -36.0306 H   0  0  0  0  0  0  0  0  0  0  0  0
  -16.2233  -25.7668  -36.5163 H   0  0  0  0  0  0  0  0  0  0  0  0
  -15.4051  -22.5135  -39.2516 H   0  0  0  0  0  0  0  0  0  0  0  0
  -16.0599  -22.1752  -37.6570 H   0  0  0  0  0  0  0  0  0  0  0  0
  -17.0572  -26.0935  -40.5765 H   0  0  0  0  0  0  0  0  0  0  0  0
  -18.6608  -25.2651  -36.6633 H   0  0  0  0  0  0  0  0  0  0  0  0
  -17.8459  -22.0268  -39.3876 H   0  0  0  0  0  0  0  0  0  0  0  0
   -6.7575  -34.0481  -30.3693 H   0  0  0  0  0  0  0  0  0  0  0  0
   -7.0506  -33.6006  -28.6717 H   0  0  0  0  0  0  0  0  0  0  0  0
   -8.0906  -32.9522  -29.9338 H   0  0  0  0  0  0  0  0  0  0  0  0
   -5.1147  -32.3101  -29.5574 H   0  0  0  0  0  0  0  0  0  0  0  0
   -6.4801  -31.2091  -29.2380 H   0  0  0  0  0  0  0  0  0  0  0  0
   -8.4586  -29.9340  -35.1537 H   0  0  0  0  0  0  0  0  0  0  0  0
   -7.6991  -28.7957  -36.3065 H   0  0  0  0  0  0  0  0  0  0  0  0
   -5.6153  -28.7668  -34.9831 H   0  0  0  0  0  0  0  0  0  0  0  0
   -6.0537  -30.4741  -35.2900 H   0  0  0  0  0  0  0  0  0  0  0  0
   -5.6897  -29.6617  -30.8920 H   0  0  0  0  0  0  0  0  0  0  0  0
   -4.2833  -30.7631  -30.9946 H   0  0  0  0  0  0  0  0  0  0  0  0
   -4.8832  -31.1606  -33.4528 H   0  0  0  0  0  0  0  0  0  0  0  0
   -4.3979  -29.4759  -33.0957 H   0  0  0  0  0  0  0  0  0  0  0  0
  -12.0677  -23.8691  -36.6111 H   0  0  0  0  0  0  0  0  0  0  0  0
  -13.8227  -23.2583  -37.4068 H   0  0  0  0  0  0  0  0  0  0  0  0
  1  3  1  0  0  0  0
  1  5  2  0  0  0  0
  2  4  2  0  0  0  0
  2  5  1  0  0  0  0
  3  6  2  0  0  0  0
  4  6  1  0  0  0  0
  5 24  1  0  0  0  0
  6 27  1  0  0  0  0
  7 24  1  0  0  0  0
  7 25  1  0  0  0  0
  7 26  2  0  0  0  0
  8 14  1  0  0  0  0
  8 15  1  0  0  0  0
  9 14  1  0  0  0  0
  9 16  1  0  0  0  0
 10 15  1  0  0  0  0
 10 16  1  0  0  0  0
 11 14  1  0  0  0  0
 11 17  1  0  0  0  0
 12 15  1  0  0  0  0
 12 17  1  0  0  0  0
 13 16  1  0  0  0  0
 13 17  1  0  0  0  0
 17 25  1  0  0  0  0
 18 19  1  0  0  0  0
 19 28  1  0  0  0  0
 20 21  1  0  0  0  0
 20 27  1  0  0  0  0
 21 29  1  0  0  0  0
 22 23  1  0  0  0  0
 22 28  1  0  0  0  0
 23 29  1  0  0  0  0
  1 30  1  0  0  0  0
  2 31  1  0  0  0  0
  3 32  1  0  0  0  0
  4 33  1  0  0  0  0
  8 34  1  0  0  0  0
  8 35  1  0  0  0  0
  9 36  1  0  0  0  0
  9 37  1  0  0  0  0
 10 38  1  0  0  0  0
 10 39  1  0  0  0  0
 11 40  1  0  0  0  0
 11 41  1  0  0  0  0
 12 42  1  0  0  0  0
 12 43  1  0  0  0  0
 13 44  1  0  0  0  0
 13 45  1  0  0  0  0
 14 46  1  0  0  0  0
 15 47  1  0  0  0  0
 16 48  1  0  0  0  0
 18 49  1  0  0  0  0
 18 50  1  0  0  0  0
 18 51  1  0  0  0  0
 19 52  1  0  0  0  0
 19 53  1  0  0  0  0
 20 54  1  0  0  0  0
 20 55  1  0  0  0  0
 21 56  1  0  0  0  0
 21 57  1  0  0  0  0
 22 58  1  0  0  0  0
 22 59  1  0  0  0  0
 23 60  1  0  0  0  0
 23 61  1  0  0  0  0
 24 62  1  0  0  0  0
 25 63  1  0  0  0  0
M  END
> <Name>
A_19

> <SourceTag>
A_19

> <Gold.Version>
5.2

> <Gold.Id.Protein>
6HGV|6HGV_protein|mol2

> <Gold.Goldscore.Fitness>
71.6590

> <Gold.Goldscore.Internal.Vdw>
-11.2465

> <Gold.Goldscore.Internal.Torsion>
-3.9992

> <Gold.Goldscore.External.Vdw>
50.5568

> <Gold.Goldscore.Internal.HBond>
0.0000

> <Gold.Goldscore.External.HBond>
2.9558

> <Gold.Goldscore.Internal.Correction>
-14.4333

> <Gold.Goldscore.Hbonds>
donor molecule, donor type, donor heavy atom, donor atom, acceptor molecule, acceptor atom, score
      L1  H    24    62       P1   854  0.23
      L1  H    25    63       P1   854  0.26

> <Gold.Goldscore.Internal.Vdw.Weighted>
-11.2465

> <Gold.Goldscore.Internal.Torsion.Weighted>
-3.9992

> <Gold.Goldscore.External.Vdw.Weighted>
69.5156

> <Gold.Goldscore.Internal.HBond.Weighted>
0.0000

> <Gold.Goldscore.External.HBond.Weighted>
2.9558

> <Gold.Goldscore.Internal.Correction.Weighted>
-14.4333

> <Gold.Protein.RotatedTorsions>
[ 3781 1176 1175 1172 ] final  160.37 input   60.00 | X-H torsion
[ 3847 1247 1246 1244 ] final  -31.93 input   60.00 | X-H torsion
[ 4507 1931 1930 1928 ] final  141.53 input   60.00 | X-H torsion
[ 3677 1070 1069 1066 ] final -160.06 input   60.00 | X-H torsion
[ 3525  925  924  922 ] final -149.40 input   59.99 | X-H torsion
[ 4531 1957 1955 1953 ] final  -33.18 input   60.00 | X-H torsion

> <Gold.Protein.ActiveResidues>
 PHE267  PRO268  MET310  ASP335  TRP336  MET339  TYR343  THR360  PRO361  ILE363 
 PRO371  SER374  ILE375  ASN378  PHE381  TYR383  GLN384  PHE387  LEU408  LEU417 
 MET419  LEU428  TYR466  MET469  ASN472  ASP496  VAL498  LEU499  MET503  HIS524 
 TRP525 

> <Gold.Protein.RotatedAtoms>
   -2.5902  -30.1119  -29.0873 H   0  0  0  0  0  0  0  0  0  0  0  0  # atno 3525 bound_to 925 
  -11.1208  -23.0528  -31.3194 H   0  0  0  0  0  0  0  0  0  0  0  0  # atno 3677 bound_to 1070
   -9.3884  -36.6899  -32.6162 H   0  0  0  0  0  0  0  0  0  0  0  0  # atno 3781 bound_to 1176
  -16.0047  -28.2977  -37.0999 H   0  0  0  0  0  0  0  0  0  0  0  0  # atno 3847 bound_to 1247
  -12.5380  -23.8049  -39.6683 H   0  0  0  0  0  0  0  0  0  0  0  0  # atno 4507 bound_to 1931
   -2.4061  -32.2249  -36.7700 H   0  0  0  0  0  0  0  0  0  0  0  0  # atno 4531 bound_to 1957
  -10.7640  -37.4402  -33.0554 LP  0  0  0  0  0  0  0  0  0  0  0  0  # atno 5205 bound_to 1176
   -9.9629  -36.5043  -34.1273 LP  0  0  0  0  0  0  0  0  0  0  0  0  # atno 5206 bound_to 1176
  -15.0619  -27.2237  -37.8781 LP  0  0  0  0  0  0  0  0  0  0  0  0  # atno 5215 bound_to 1247
  -14.4920  -28.7142  -37.5316 LP  0  0  0  0  0  0  0  0  0  0  0  0  # atno 5216 bound_to 1247
  -13.0239  -25.1455  -38.8843 LP  0  0  0  0  0  0  0  0  0  0  0  0  # atno 5217 bound_to 1931
  -13.6367  -24.7892  -40.3554 LP  0  0  0  0  0  0  0  0  0  0  0  0  # atno 5218 bound_to 1931
  -12.1698  -22.2640  -30.3574 LP  0  0  0  0  0  0  0  0  0  0  0  0  # atno 5224 bound_to 1070
  -12.5693  -23.7163  -30.9881 LP  0  0  0  0  0  0  0  0  0  0  0  0  # atno 5225 bound_to 1070

$$$$
A_99|SEH_inhibs_minimized|sdf|58|dock4
  -GOLD-   4182110473D 1   1.00000     0.00000

 43 46  0  0  0  0  0  0  0  0  1 V2000
   -7.8309  -27.6838  -34.6801 C   0  0  0  0  0  0  0  0  0  0  0  0
   -9.5451  -25.9884  -34.2687 C   0  0  0  0  0  0  0  0  0  0  0  0
   -9.8426  -27.5749  -36.0664 C   0  0  0  0  0  0  0  0  0  0  0  0
  -10.7660  -25.3954  -34.5901 C   0  0  0  0  0  0  0  0  0  0  0  0
  -11.0636  -26.9820  -36.3876 C   0  0  0  0  0  0  0  0  0  0  0  0
   -9.0833  -27.0782  -35.0069 C   0  0  0  0  0  0  0  0  0  0  0  0
  -11.5253  -25.8922  -35.6494 C   0  0  0  0  0  0  0  0  0  0  0  0
  -13.7738  -25.7978  -36.7965 C   0  0  0  0  0  0  0  0  0  0  0  0
  -17.6996  -23.2183  -40.1290 C   0  0  0  0  0  0  0  0  0  0  0  0
  -18.4136  -24.5183  -38.1075 C   0  0  0  0  0  0  0  0  0  0  0  0
  -17.0264  -25.6216  -39.8896 C   0  0  0  0  0  0  0  0  0  0  0  0
  -16.6923  -22.7111  -37.8899 C   0  0  0  0  0  0  0  0  0  0  0  0
  -15.3079  -23.8123  -39.6685 C   0  0  0  0  0  0  0  0  0  0  0  0
  -18.1468  -24.6000  -39.6218 C   0  0  0  0  0  0  0  0  0  0  0  0
  -16.4167  -22.7805  -39.4014 C   0  0  0  0  0  0  0  0  0  0  0  0
  -17.1316  -24.0927  -37.3654 C   0  0  0  0  0  0  0  0  0  0  0  0
  -15.7384  -25.2009  -39.1551 C   0  0  0  0  0  0  0  0  0  0  0  0
  -16.0348  -25.1454  -37.6400 C   0  0  0  0  0  0  0  0  0  0  0  0
   -6.8138  -28.1756  -34.4147 N   0  0  0  0  0  0  0  0  0  0  0  0
  -12.7632  -25.2904  -35.9752 N   0  0  0  0  0  0  0  0  0  0  0  0
  -14.8419  -24.8968  -36.8653 N   0  0  0  0  0  0  0  0  0  0  0  0
  -13.7645  -26.8738  -37.3897 O   0  0  0  0  0  0  0  0  0  0  0  0
   -8.9641  -25.5889  -33.4407 H   0  0  0  0  0  0  0  0  0  0  0  0
   -9.4953  -28.4235  -36.6513 H   0  0  0  0  0  0  0  0  0  0  0  0
  -11.1167  -24.5471  -34.0077 H   0  0  0  0  0  0  0  0  0  0  0  0
  -11.6470  -27.3777  -37.2151 H   0  0  0  0  0  0  0  0  0  0  0  0
  -17.5226  -23.2554  -41.2108 H   0  0  0  0  0  0  0  0  0  0  0  0
  -18.4953  -22.4821  -39.9615 H   0  0  0  0  0  0  0  0  0  0  0  0
  -19.2182  -23.7996  -37.9077 H   0  0  0  0  0  0  0  0  0  0  0  0
  -18.7570  -25.4911  -37.7349 H   0  0  0  0  0  0  0  0  0  0  0  0
  -17.3407  -26.6177  -39.5545 H   0  0  0  0  0  0  0  0  0  0  0  0
  -16.8363  -25.6943  -40.9676 H   0  0  0  0  0  0  0  0  0  0  0  0
  -15.7950  -22.3695  -37.3602 H   0  0  0  0  0  0  0  0  0  0  0  0
  -17.4766  -21.9709  -37.6878 H   0  0  0  0  0  0  0  0  0  0  0  0
  -15.0973  -23.8630  -40.7442 H   0  0  0  0  0  0  0  0  0  0  0  0
  -14.3771  -23.4969  -39.1820 H   0  0  0  0  0  0  0  0  0  0  0  0
  -19.0608  -24.9066  -40.1424 H   0  0  0  0  0  0  0  0  0  0  0  0
  -16.1029  -21.7962  -39.7663 H   0  0  0  0  0  0  0  0  0  0  0  0
  -17.3343  -24.0265  -36.2898 H   0  0  0  0  0  0  0  0  0  0  0  0
  -14.9435  -25.9277  -39.3607 H   0  0  0  0  0  0  0  0  0  0  0  0
  -16.3884  -26.1291  -37.3064 H   0  0  0  0  0  0  0  0  0  0  0  0
  -12.9341  -24.3788  -35.5584 H   0  0  0  0  0  0  0  0  0  0  0  0
  -14.7751  -24.0268  -36.3457 H   0  0  0  0  0  0  0  0  0  0  0  0
  1  6  1  0  0  0  0
  1 19  3  0  0  0  0
  2  4  1  0  0  0  0
  2  6  2  0  0  0  0
  3  5  2  0  0  0  0
  3  6  1  0  0  0  0
  4  7  2  0  0  0  0
  5  7  1  0  0  0  0
  7 20  1  0  0  0  0
  8 20  1  0  0  0  0
  8 21  1  0  0  0  0
  8 22  2  0  0  0  0
  9 14  1  0  0  0  0
  9 15  1  0  0  0  0
 10 14  1  0  0  0  0
 10 16  1  0  0  0  0
 11 14  1  0  0  0  0
 11 17  1  0  0  0  0
 12 15  1  0  0  0  0
 12 16  1  0  0  0  0
 13 15  1  0  0  0  0
 13 17  1  0  0  0  0
 16 18  1  0  0  0  0
 17 18  1  0  0  0  0
 18 21  1  0  0  0  0
  2 23  1  0  0  0  0
  3 24  1  0  0  0  0
  4 25  1  0  0  0  0
  5 26  1  0  0  0  0
  9 27  1  0  0  0  0
  9 28  1  0  0  0  0
 10 29  1  0  0  0  0
 10 30  1  0  0  0  0
 11 31  1  0  0  0  0
 11 32  1  0  0  0  0
 12 33  1  0  0  0  0
 12 34  1  0  0  0  0
 13 35  1  0  0  0  0
 13 36  1  0  0  0  0
 14 37  1  0  0  0  0
 15 38  1  0  0  0  0
 16 39  1  0  0  0  0
 17 40  1  0  0  0  0
 18 41  1  0  0  0  0
 20 42  1  0  0  0  0
 21 43  1  0  0  0  0
M  END
> <Name>
A_99

> <SourceTag>
A_99

> <Gold.Version>
5.2

> <Gold.Id.Protein>
6HGV|6HGV_protein|mol2

> <Gold.Goldscore.Fitness>
59.4521

> <Gold.Goldscore.Internal.Vdw>
-3.3445

> <Gold.Goldscore.Internal.Torsion>
-0.9924

> <Gold.Goldscore.External.Vdw>
39.7625

> <Gold.Goldscore.Internal.HBond>
0.0000

> <Gold.Goldscore.External.HBond>
5.9764

> <Gold.Goldscore.Internal.Correction>
-3.1391

> <Gold.Goldscore.Hbonds>
donor molecule, donor type, donor heavy atom, donor atom, acceptor molecule, acceptor atom, score
      P1  H  1247  3847       L1    22  0.06
      L1  H    20    42       P1   853  0.43
      L1  H    21    43       P1   853  0.54

> <Gold.Goldscore.Internal.Vdw.Weighted>
-3.3445

> <Gold.Goldscore.Internal.Torsion.Weighted>
-0.9924

> <Gold.Goldscore.External.Vdw.Weighted>
54.6734

> <Gold.Goldscore.Internal.HBond.Weighted>
0.0000

> <Gold.Goldscore.External.HBond.Weighted>
5.9764

> <Gold.Goldscore.Internal.Correction.Weighted>
-3.1391

> <Gold.Protein.RotatedTorsions>
[ 3781 1176 1175 1172 ] final -152.94 input   60.00 | X-H torsion
[ 3847 1247 1246 1244 ] final  144.34 input   60.00 | X-H torsion
[ 4507 1931 1930 1928 ] final   74.69 input   60.00 | X-H torsion
[ 3677 1070 1069 1066 ] final -107.52 input   60.00 | X-H torsion
[ 3525  925  924  922 ] final  -19.27 input   59.99 | X-H torsion
[ 4531 1957 1955 1953 ] final  -10.30 input   60.00 | X-H torsion

> <Gold.Protein.ActiveResidues>
 PHE267  PRO268  MET310  ASP335  TRP336  MET339  TYR343  THR360  PRO361  ILE363 
 PRO371  SER374  ILE375  ASN378  PHE381  TYR383  GLN384  PHE387  LEU408  LEU417 
 MET419  LEU428  TYR466  MET469  ASN472  ASP496  VAL498  LEU499  MET503  HIS524 
 TRP525 

> <Gold.Protein.RotatedAtoms>
   -3.7305  -29.5135  -30.1939 H   0  0  0  0  0  0  0  0  0  0  0  0  # atno 3525 bound_to 925 
  -11.6278  -23.6978  -31.4375 H   0  0  0  0  0  0  0  0  0  0  0  0  # atno 3677 bound_to 1070
   -9.2576  -36.3589  -33.2672 H   0  0  0  0  0  0  0  0  0  0  0  0  # atno 3781 bound_to 1176
  -14.3531  -27.9175  -37.8936 H   0  0  0  0  0  0  0  0  0  0  0  0  # atno 3847 bound_to 1247
  -12.5340  -24.4623  -38.8737 H   0  0  0  0  0  0  0  0  0  0  0  0  # atno 4507 bound_to 1931
   -2.7348  -32.3871  -36.7103 H   0  0  0  0  0  0  0  0  0  0  0  0  # atno 4531 bound_to 1957
  -10.2931  -37.3400  -32.4840 LP  0  0  0  0  0  0  0  0  0  0  0  0  # atno 5205 bound_to 1176
  -10.5656  -36.9379  -34.0431 LP  0  0  0  0  0  0  0  0  0  0  0  0  # atno 5206 bound_to 1176
  -15.3705  -28.9165  -37.1094 LP  0  0  0  0  0  0  0  0  0  0  0  0  # atno 5215 bound_to 1247
  -15.8466  -27.4043  -37.5010 LP  0  0  0  0  0  0  0  0  0  0  0  0  # atno 5216 bound_to 1247
  -13.6334  -25.3270  -39.7054 LP  0  0  0  0  0  0  0  0  0  0  0  0  # atno 5217 bound_to 1931
  -13.0312  -23.9457  -40.3345 LP  0  0  0  0  0  0  0  0  0  0  0  0  # atno 5218 bound_to 1931
  -11.4182  -22.2522  -30.7202 LP  0  0  0  0  0  0  0  0  0  0  0  0  # atno 5224 bound_to 1070
  -12.8103  -23.0787  -30.5065 LP  0  0  0  0  0  0  0  0  0  0  0  0  # atno 5225 bound_to 1070

$$$$
A_100|SEH_inhibs_minimized|sdf|2|dock2
  -GOLD-   41821 8573D 1   1.00000     0.00000

 47 50  0  0  0  0  0  0  0  0  1 V2000
  -17.8083  -22.7855  -39.2050 C   0  0  0  0  0  0  0  0  0  0  0  0
  -18.8401  -23.1866  -38.3565 C   0  0  0  0  0  0  0  0  0  0  0  0
  -16.4963  -23.1800  -38.9425 C   0  0  0  0  0  0  0  0  0  0  0  0
  -17.2481  -24.3765  -36.9829 C   0  0  0  0  0  0  0  0  0  0  0  0
  -18.5602  -23.9820  -37.2454 C   0  0  0  0  0  0  0  0  0  0  0  0
  -16.2162  -23.9755  -37.8314 C   0  0  0  0  0  0  0  0  0  0  0  0
  -19.6369  -24.3995  -36.3618 C   0  0  0  0  0  0  0  0  0  0  0  0
  -14.4513  -25.5484  -36.9419 C   0  0  0  0  0  0  0  0  0  0  0  0
  -10.0447  -26.7727  -33.5316 C   0  0  0  0  0  0  0  0  0  0  0  0
  -10.0765  -27.7050  -35.8587 C   0  0  0  0  0  0  0  0  0  0  0  0
  -11.9912  -28.1567  -34.2943 C   0  0  0  0  0  0  0  0  0  0  0  0
  -10.3613  -25.2432  -35.4926 C   0  0  0  0  0  0  0  0  0  0  0  0
  -12.2723  -25.6940  -33.9313 C   0  0  0  0  0  0  0  0  0  0  0  0
  -10.4654  -27.9752  -34.3936 C   0  0  0  0  0  0  0  0  0  0  0  0
  -10.7498  -25.4980  -34.0264 C   0  0  0  0  0  0  0  0  0  0  0  0
  -10.7869  -26.4367  -36.3707 C   0  0  0  0  0  0  0  0  0  0  0  0
  -12.7099  -26.8904  -34.7996 C   0  0  0  0  0  0  0  0  0  0  0  0
  -12.3129  -26.6577  -36.2743 C   0  0  0  0  0  0  0  0  0  0  0  0
  -21.0333  -23.9865  -36.7268 C   0  0  0  0  0  0  0  0  0  0  0  0
  -14.8859  -24.3756  -37.5656 N   0  0  0  0  0  0  0  0  0  0  0  0
  -13.0544  -25.5701  -36.8679 N   0  0  0  0  0  0  0  0  0  0  0  0
  -19.4896  -25.0628  -35.3330 O   0  0  0  0  0  0  0  0  0  0  0  0
  -15.1603  -26.4531  -36.5078 O   0  0  0  0  0  0  0  0  0  0  0  0
  -18.0262  -22.1664  -40.0704 H   0  0  0  0  0  0  0  0  0  0  0  0
  -19.8583  -22.8722  -38.5706 H   0  0  0  0  0  0  0  0  0  0  0  0
  -15.6997  -22.8612  -39.6103 H   0  0  0  0  0  0  0  0  0  0  0  0
  -17.0295  -24.9962  -36.1156 H   0  0  0  0  0  0  0  0  0  0  0  0
  -10.2991  -26.9575  -32.4807 H   0  0  0  0  0  0  0  0  0  0  0  0
   -8.9567  -26.6411  -33.5775 H   0  0  0  0  0  0  0  0  0  0  0  0
   -8.9891  -27.5843  -35.9409 H   0  0  0  0  0  0  0  0  0  0  0  0
  -10.3487  -28.5650  -36.4829 H   0  0  0  0  0  0  0  0  0  0  0  0
  -12.3037  -29.0262  -34.8856 H   0  0  0  0  0  0  0  0  0  0  0  0
  -12.2770  -28.3601  -33.2549 H   0  0  0  0  0  0  0  0  0  0  0  0
  -10.8316  -24.3194  -35.8502 H   0  0  0  0  0  0  0  0  0  0  0  0
   -9.2772  -25.0933  -35.5701 H   0  0  0  0  0  0  0  0  0  0  0  0
  -12.5610  -25.8678  -32.8870 H   0  0  0  0  0  0  0  0  0  0  0  0
  -12.7885  -24.7808  -34.2508 H   0  0  0  0  0  0  0  0  0  0  0  0
   -9.9602  -28.8799  -34.0376 H   0  0  0  0  0  0  0  0  0  0  0  0
  -10.4465  -24.6450  -33.4092 H   0  0  0  0  0  0  0  0  0  0  0  0
  -10.4952  -26.2464  -37.4104 H   0  0  0  0  0  0  0  0  0  0  0  0
  -13.7949  -27.0244  -34.7146 H   0  0  0  0  0  0  0  0  0  0  0  0
  -12.5866  -27.5414  -36.8642 H   0  0  0  0  0  0  0  0  0  0  0  0
  -21.1750  -22.8959  -36.7879 H   0  0  0  0  0  0  0  0  0  0  0  0
  -21.7956  -24.3805  -36.0370 H   0  0  0  0  0  0  0  0  0  0  0  0
  -21.3484  -24.3481  -37.7218 H   0  0  0  0  0  0  0  0  0  0  0  0
  -14.1617  -23.7286  -37.8673 H   0  0  0  0  0  0  0  0  0  0  0  0
  -12.5375  -24.7839  -37.2499 H   0  0  0  0  0  0  0  0  0  0  0  0
  1  2  1  0  0  0  0
  1  3  2  0  0  0  0
  2  5  2  0  0  0  0
  3  6  1  0  0  0  0
  4  5  1  0  0  0  0
  4  6  2  0  0  0  0
  5  7  1  0  0  0  0
  6 20  1  0  0  0  0
  7 19  1  0  0  0  0
  7 22  2  0  0  0  0
  8 20  1  0  0  0  0
  8 21  1  0  0  0  0
  8 23  2  0  0  0  0
  9 14  1  0  0  0  0
  9 15  1  0  0  0  0
 10 14  1  0  0  0  0
 10 16  1  0  0  0  0
 11 14  1  0  0  0  0
 11 17  1  0  0  0  0
 12 15  1  0  0  0  0
 12 16  1  0  0  0  0
 13 15  1  0  0  0  0
 13 17  1  0  0  0  0
 16 18  1  0  0  0  0
 17 18  1  0  0  0  0
 18 21  1  0  0  0  0
  1 24  1  0  0  0  0
  2 25  1  0  0  0  0
  3 26  1  0  0  0  0
  4 27  1  0  0  0  0
  9 28  1  0  0  0  0
  9 29  1  0  0  0  0
 10 30  1  0  0  0  0
 10 31  1  0  0  0  0
 11 32  1  0  0  0  0
 11 33  1  0  0  0  0
 12 34  1  0  0  0  0
 12 35  1  0  0  0  0
 13 36  1  0  0  0  0
 13 37  1  0  0  0  0
 14 38  1  0  0  0  0
 15 39  1  0  0  0  0
 16 40  1  0  0  0  0
 17 41  1  0  0  0  0
 18 42  1  0  0  0  0
 19 43  1  0  0  0  0
 19 44  1  0  0  0  0
 19 45  1  0  0  0  0
 20 46  1  0  0  0  0
 21 47  1  0  0  0  0
M  END
> <Name>
A_100

> <SourceTag>
A_100

> <Gold.Version>
5.2

> <Gold.Id.Protein>
6HGV|6HGV_protein|mol2

> <Gold.Goldscore.Fitness>
58.7645

> <Gold.Goldscore.Internal.Vdw>
-4.2215

> <Gold.Goldscore.Internal.Torsion>
-3.0708

> <Gold.Goldscore.External.Vdw>
43.6085

> <Gold.Goldscore.Internal.HBond>
0.0000

> <Gold.Goldscore.External.HBond>
0.0000

> <Gold.Goldscore.Internal.Correction>
-6.0951

> <Gold.Goldscore.Internal.Vdw.Weighted>
-4.2215

> <Gold.Goldscore.Internal.Torsion.Weighted>
-3.0708

> <Gold.Goldscore.External.Vdw.Weighted>
59.9617

> <Gold.Goldscore.Internal.HBond.Weighted>
0.0000

> <Gold.Goldscore.External.HBond.Weighted>
0.0000

> <Gold.Goldscore.Internal.Correction.Weighted>
-6.0951

> <Gold.Protein.RotatedTorsions>
[ 3781 1176 1175 1172 ] final   35.42 input   60.00 | X-H torsion
[ 3847 1247 1246 1244 ] final   69.02 input   60.00 | X-H torsion
[ 4507 1931 1930 1928 ] final  -74.66 input   60.00 | X-H torsion
[ 3677 1070 1069 1066 ] final  -76.22 input   60.00 | X-H torsion
[ 3525  925  924  922 ] final  158.06 input   59.99 | X-H torsion
[ 4531 1957 1955 1953 ] final  -41.85 input   60.00 | X-H torsion

> <Gold.Protein.ActiveResidues>
 PHE267  PRO268  MET310  ASP335  TRP336  MET339  TYR343  THR360  PRO361  ILE363 
 PRO371  SER374  ILE375  ASN378  PHE381  TYR383  GLN384  PHE387  LEU408  LEU417 
 MET419  LEU428  TYR466  MET469  ASN472  ASP496  VAL498  LEU499  MET503  HIS524 
 TRP525 

> <Gold.Protein.RotatedAtoms>
   -2.0855  -30.2736  -29.7244 H   0  0  0  0  0  0  0  0  0  0  0  0  # atno 3525 bound_to 925 
  -12.0894  -23.8441  -31.2939 H   0  0  0  0  0  0  0  0  0  0  0  0  # atno 3677 bound_to 1070
  -10.7835  -37.4270  -33.1334 H   0  0  0  0  0  0  0  0  0  0  0  0  # atno 3781 bound_to 1176
  -14.7129  -28.8771  -37.3853 H   0  0  0  0  0  0  0  0  0  0  0  0  # atno 3847 bound_to 1247
  -13.6955  -25.0828  -40.1093 H   0  0  0  0  0  0  0  0  0  0  0  0  # atno 4507 bound_to 1931
   -2.2691  -32.2000  -36.7956 H   0  0  0  0  0  0  0  0  0  0  0  0  # atno 4531 bound_to 1957
   -9.8945  -36.4681  -34.1019 LP  0  0  0  0  0  0  0  0  0  0  0  0  # atno 5205 bound_to 1176
   -9.4274  -36.7341  -32.5599 LP  0  0  0  0  0  0  0  0  0  0  0  0  # atno 5206 bound_to 1176
  -16.0720  -28.0055  -37.1826 LP  0  0  0  0  0  0  0  0  0  0  0  0  # atno 5215 bound_to 1247
  -14.7828  -27.3488  -37.9398 LP  0  0  0  0  0  0  0  0  0  0  0  0  # atno 5216 bound_to 1247
  -12.7239  -23.7815  -40.0076 LP  0  0  0  0  0  0  0  0  0  0  0  0  # atno 5217 bound_to 1931
  -12.7709  -24.8662  -38.7879 LP  0  0  0  0  0  0  0  0  0  0  0  0  # atno 5218 bound_to 1931
  -11.1408  -22.5494  -31.0259 LP  0  0  0  0  0  0  0  0  0  0  0  0  # atno 5224 bound_to 1070
  -12.6228  -22.6341  -30.3455 LP  0  0  0  0  0  0  0  0  0  0  0  0  # atno 5225 bound_to 1070

$$$$
