IA_10|SeH_inactivess_minimized|sdf|1|dock7
  -GOLD-   4172118173D 1   1.00000     0.00000

 46 46  0  0  0  0  0  0  0  0  1 V2000
  -17.3552  -25.6129  -36.7579 C   0  0  0  0  0  0  0  0  0  0  0  0
  -17.3309  -22.9042  -39.1564 C   0  0  0  0  0  0  0  0  0  0  0  0
  -14.3934  -26.5096  -35.5722 C   0  0  0  0  0  0  0  0  0  0  0  0
  -10.0237  -26.1585  -33.6445 C   0  0  0  0  0  0  0  0  0  0  0  0
  -10.1842  -25.3098  -34.9021 C   0  0  0  0  0  0  0  0  0  0  0  0
  -11.3020  -26.9215  -33.3111 C   0  0  0  0  0  0  0  0  0  0  0  0
  -10.6645  -26.1451  -36.0889 C   0  0  0  0  0  0  0  0  0  0  0  0
  -11.7840  -27.7594  -34.4953 C   0  0  0  0  0  0  0  0  0  0  0  0
  -11.9421  -26.9305  -35.7745 C   0  0  0  0  0  0  0  0  0  0  0  0
  -20.3966  -24.6496  -37.4361 C   0  0  0  0  0  0  0  0  0  0  0  0
  -20.3723  -23.5270  -39.6838 C   0  0  0  0  0  0  0  0  0  0  0  0
  -16.7215  -25.6446  -35.3834 C   0  0  0  0  0  0  0  0  0  0  0  0
  -18.1580  -23.9859  -38.4674 C   0  0  2  0  0  0  0  0  0  0  0  0
  -19.6594  -23.6521  -38.3338 C   0  0  0  0  0  0  0  0  0  0  0  0
  -17.6024  -24.3127  -37.1738 N   0  0  0  0  0  0  0  0  0  0  0  0
  -13.0852  -26.0492  -35.6848 N   0  0  0  0  0  0  0  0  0  0  0  0
  -15.2957  -25.4510  -35.5040 N   0  0  0  0  0  0  0  0  0  0  0  0
  -17.5728  -26.6232  -37.4218 O   0  0  0  0  0  0  0  0  0  0  0  0
  -17.2195  -22.8081  -40.3733 O   0  0  0  0  0  0  0  0  0  0  0  0
  -14.7139  -27.6969  -35.5368 O   0  0  0  0  0  0  0  0  0  0  0  0
  -16.6739  -22.0727  -38.3107 O   0  0  0  0  0  0  0  0  0  0  0  0
   -9.2018  -26.8707  -33.7885 H   0  0  0  0  0  0  0  0  0  0  0  0
   -9.7458  -25.5177  -32.8001 H   0  0  0  0  0  0  0  0  0  0  0  0
  -10.8968  -24.4990  -34.7078 H   0  0  0  0  0  0  0  0  0  0  0  0
   -9.2272  -24.8371  -35.1503 H   0  0  0  0  0  0  0  0  0  0  0  0
  -11.1254  -27.5740  -32.4485 H   0  0  0  0  0  0  0  0  0  0  0  0
  -12.0852  -26.2124  -33.0166 H   0  0  0  0  0  0  0  0  0  0  0  0
  -10.8210  -25.4897  -36.9542 H   0  0  0  0  0  0  0  0  0  0  0  0
   -9.8718  -26.8518  -36.3659 H   0  0  0  0  0  0  0  0  0  0  0  0
  -11.0570  -28.5611  -34.6788 H   0  0  0  0  0  0  0  0  0  0  0  0
  -12.7319  -28.2452  -34.2342 H   0  0  0  0  0  0  0  0  0  0  0  0
  -12.1593  -27.6050  -36.6104 H   0  0  0  0  0  0  0  0  0  0  0  0
  -19.9693  -24.6429  -36.4272 H   0  0  0  0  0  0  0  0  0  0  0  0
  -20.3051  -25.6684  -37.8267 H   0  0  0  0  0  0  0  0  0  0  0  0
  -21.4599  -24.4118  -37.3419 H   0  0  0  0  0  0  0  0  0  0  0  0
  -20.3869  -24.4784  -40.2251 H   0  0  0  0  0  0  0  0  0  0  0  0
  -21.4121  -23.2134  -39.5394 H   0  0  0  0  0  0  0  0  0  0  0  0
  -19.8894  -22.7792  -40.3205 H   0  0  0  0  0  0  0  0  0  0  0  0
  -16.8934  -26.6093  -34.8974 H   0  0  0  0  0  0  0  0  0  0  0  0
  -17.1330  -24.8394  -34.7688 H   0  0  0  0  0  0  0  0  0  0  0  0
  -18.0300  -24.8959  -39.0660 H   0  0  0  0  0  0  0  0  0  0  0  0
  -19.7376  -22.6740  -37.8384 H   0  0  0  0  0  0  0  0  0  0  0  0
  -17.3819  -23.5523  -36.5373 H   0  0  0  0  0  0  0  0  0  0  0  0
  -12.9256  -25.0475  -35.7051 H   0  0  0  0  0  0  0  0  0  0  0  0
  -14.9357  -24.5018  -35.4940 H   0  0  0  0  0  0  0  0  0  0  0  0
  -16.1057  -21.4032  -38.7454 H   0  0  0  0  0  0  0  0  0  0  0  0
  1 12  1  0  0  0  0
  1 15  1  0  0  0  0
  1 18  2  0  0  0  0
  2 13  1  0  0  0  0
  2 19  2  0  0  0  0
  2 21  1  0  0  0  0
  3 16  1  0  0  0  0
  3 17  1  0  0  0  0
  3 20  2  0  0  0  0
  4  5  1  0  0  0  0
  4  6  1  0  0  0  0
  5  7  1  0  0  0  0
  6  8  1  0  0  0  0
  7  9  1  0  0  0  0
  8  9  1  0  0  0  0
  9 16  1  0  0  0  0
 10 14  1  0  0  0  0
 11 14  1  0  0  0  0
 12 17  1  0  0  0  0
 13 14  1  0  0  0  0
 13 15  1  0  0  0  0
  4 22  1  0  0  0  0
  4 23  1  0  0  0  0
  5 24  1  0  0  0  0
  5 25  1  0  0  0  0
  6 26  1  0  0  0  0
  6 27  1  0  0  0  0
  7 28  1  0  0  0  0
  7 29  1  0  0  0  0
  8 30  1  0  0  0  0
  8 31  1  0  0  0  0
  9 32  1  0  0  0  0
 10 33  1  0  0  0  0
 10 34  1  0  0  0  0
 10 35  1  0  0  0  0
 11 36  1  0  0  0  0
 11 37  1  0  0  0  0
 11 38  1  0  0  0  0
 12 39  1  0  0  0  0
 12 40  1  0  0  0  0
 13 41  1  0  0  0  0
 14 42  1  0  0  0  0
 15 43  1  0  0  0  0
 16 44  1  0  0  0  0
 17 45  1  0  0  0  0
 21 46  1  0  0  0  0
M  END
> <Name>
IA_10

> <SourceTag>
IA_10

> <Gold.Version>
5.2

> <Gold.Id.Protein>
6HGV|6HGV_protein|mol2

> <Gold.Goldscore.Fitness>
62.4407

> <Gold.Goldscore.Internal.Vdw>
-2.0457

> <Gold.Goldscore.Internal.Torsion>
-3.6374

> <Gold.Goldscore.External.Vdw>
42.8507

> <Gold.Goldscore.Internal.HBond>
0.0000

> <Gold.Goldscore.External.HBond>
5.8412

> <Gold.Goldscore.Internal.Correction>
-3.3629

> <Gold.Goldscore.Hbonds>
donor molecule, donor type, donor heavy atom, donor atom, acceptor molecule, acceptor atom, score
      L1  H    15    43       P1  2419  0.08
      L1  H    16    44       P1   853  0.07
      L1  H    17    45       P1   853  0.54
      L1  H    21    46       P1   302  1.00

> <Gold.Goldscore.Internal.Vdw.Weighted>
-2.0457

> <Gold.Goldscore.Internal.Torsion.Weighted>
-3.6374

> <Gold.Goldscore.External.Vdw.Weighted>
58.9196

> <Gold.Goldscore.Internal.HBond.Weighted>
0.0000

> <Gold.Goldscore.External.HBond.Weighted>
5.8412

> <Gold.Goldscore.Internal.Correction.Weighted>
-3.3629

> <Gold.Protein.RotatedTorsions>
[ 3781 1176 1175 1172 ] final  121.34 input   60.00 | X-H torsion
[ 3847 1247 1246 1244 ] final  148.95 input   60.00 | X-H torsion
[ 4507 1931 1930 1928 ] final   23.69 input   60.00 | X-H torsion
[ 3677 1070 1069 1066 ] final -107.36 input   60.00 | X-H torsion
[ 3525  925  924  922 ] final  100.79 input   59.99 | X-H torsion
[ 4531 1957 1955 1953 ] final -168.75 input   60.00 | X-H torsion

> <Gold.Protein.ActiveResidues>
 PHE267  PRO268  MET310  ASP335  TRP336  MET339  TYR343  THR360  PRO361  ILE363
 PRO371  SER374  ILE375  ASN378  PHE381  TYR383  GLN384  PHE387  LEU408  LEU417
 MET419  LEU428  TYR466  MET469  ASN472  ASP496  VAL498  LEU499  MET503  HIS524
 TRP525

> <Gold.Protein.RotatedAtoms>
   -2.2750  -30.1121  -30.5866 H   0  0  0  0  0  0  0  0  0  0  0  0  # atno 3525 bound_to 925
  -11.6300  -23.6990  -31.4371 H   0  0  0  0  0  0  0  0  0  0  0  0  # atno 3677 bound_to 1070
   -9.8221  -37.0700  -32.3741 H   0  0  0  0  0  0  0  0  0  0  0  0  # atno 3781 bound_to 1176
  -14.3777  -27.8485  -37.9104 H   0  0  0  0  0  0  0  0  0  0  0  0  # atno 3847 bound_to 1247
  -12.9987  -25.1210  -38.8763 H   0  0  0  0  0  0  0  0  0  0  0  0  # atno 4507 bound_to 1931
   -1.3930  -33.6149  -36.9866 H   0  0  0  0  0  0  0  0  0  0  0  0  # atno 4531 bound_to 1957
  -10.8119  -37.2482  -33.6533 LP  0  0  0  0  0  0  0  0  0  0  0  0  # atno 5205 bound_to 1176
   -9.4782  -36.3135  -33.7732 LP  0  0  0  0  0  0  0  0  0  0  0  0  # atno 5206 bound_to 1176
  -15.3005  -28.9374  -37.1289 LP  0  0  0  0  0  0  0  0  0  0  0  0  # atno 5215 bound_to 1247
  -15.8920  -27.4529  -37.4647 LP  0  0  0  0  0  0  0  0  0  0  0  0  # atno 5216 bound_to 1247
  -13.6468  -24.8183  -40.3379 LP  0  0  0  0  0  0  0  0  0  0  0  0  # atno 5217 bound_to 1931
  -12.5497  -23.7910  -39.6995 LP  0  0  0  0  0  0  0  0  0  0  0  0  # atno 5218 bound_to 1931
  -11.4164  -22.2531  -30.7217 LP  0  0  0  0  0  0  0  0  0  0  0  0  # atno 5224 bound_to 1070
  -12.8100  -23.0765  -30.5054 LP  0  0  0  0  0  0  0  0  0  0  0  0  # atno 5225 bound_to 1070

$$$$
IA_10|SeH_inactivess_minimized|sdf|1|dock8
  -GOLD-   4172118173D 1   1.00000     0.00000

 46 46  0  0  0  0  0  0  0  0  1 V2000
  -16.6553  -24.6937  -37.3718 C   0  0  0  0  0  0  0  0  0  0  0  0
  -15.9987  -22.7387  -39.4104 C   0  0  0  0  0  0  0  0  0  0  0  0
  -14.3702  -26.7268  -35.3554 C   0  0  0  0  0  0  0  0  0  0  0  0
   -9.5032  -25.9310  -34.5990 C   0  0  0  0  0  0  0  0  0  0  0  0
  -10.2371  -26.4765  -35.8202 C   0  0  0  0  0  0  0  0  0  0  0  0
  -10.4720  -25.5231  -33.4935 C   0  0  0  0  0  0  0  0  0  0  0  0
  -11.1777  -27.6226  -35.4477 C   0  0  0  0  0  0  0  0  0  0  0  0
  -11.4129  -26.6676  -33.1172 C   0  0  0  0  0  0  0  0  0  0  0  0
  -12.1539  -27.2404  -34.3301 C   0  0  0  0  0  0  0  0  0  0  0  0
  -17.4089  -23.9495  -41.9721 C   0  0  0  0  0  0  0  0  0  0  0  0
  -18.7185  -24.1437  -39.8367 C   0  0  0  0  0  0  0  0  0  0  0  0
  -16.4548  -25.7741  -36.3304 C   0  0  0  0  0  0  0  0  0  0  0  0
  -16.1527  -24.2147  -39.7660 C   0  0  2  0  0  0  0  0  0  0  0  0
  -17.4320  -24.5483  -40.5631 C   0  0  0  0  0  0  0  0  0  0  0  0
  -16.0728  -25.0402  -38.5823 N   0  0  0  0  0  0  0  0  0  0  0  0
  -13.1575  -26.3164  -34.8101 N   0  0  0  0  0  0  0  0  0  0  0  0
  -15.1466  -25.6348  -35.7353 N   0  0  0  0  0  0  0  0  0  0  0  0
  -17.2959  -23.6670  -37.1613 O   0  0  0  0  0  0  0  0  0  0  0  0
  -16.6302  -21.8406  -39.9554 O   0  0  0  0  0  0  0  0  0  0  0  0
  -14.7143  -27.9007  -35.4855 O   0  0  0  0  0  0  0  0  0  0  0  0
  -15.0592  -22.4813  -38.4674 O   0  0  0  0  0  0  0  0  0  0  0  0
   -8.8152  -26.6951  -34.2164 H   0  0  0  0  0  0  0  0  0  0  0  0
   -8.8921  -25.0693  -34.8904 H   0  0  0  0  0  0  0  0  0  0  0  0
  -10.8076  -25.6691  -36.2951 H   0  0  0  0  0  0  0  0  0  0  0  0
   -9.5084  -26.8266  -36.5601 H   0  0  0  0  0  0  0  0  0  0  0  0
   -9.9073  -25.2073  -32.6088 H   0  0  0  0  0  0  0  0  0  0  0  0
  -11.0574  -24.6555  -33.8216 H   0  0  0  0  0  0  0  0  0  0  0  0
  -11.7258  -27.9469  -36.3406 H   0  0  0  0  0  0  0  0  0  0  0  0
  -10.5761  -28.4788  -35.1168 H   0  0  0  0  0  0  0  0  0  0  0  0
  -10.8250  -27.4677  -32.6493 H   0  0  0  0  0  0  0  0  0  0  0  0
  -12.1273  -26.3169  -32.3626 H   0  0  0  0  0  0  0  0  0  0  0  0
  -12.7061  -28.1346  -34.0195 H   0  0  0  0  0  0  0  0  0  0  0  0
  -18.2770  -24.2919  -42.5462 H   0  0  0  0  0  0  0  0  0  0  0  0
  -16.5104  -24.2615  -42.5145 H   0  0  0  0  0  0  0  0  0  0  0  0
  -17.4386  -22.8564  -41.9560 H   0  0  0  0  0  0  0  0  0  0  0  0
  -19.6045  -24.3067  -40.4585 H   0  0  0  0  0  0  0  0  0  0  0  0
  -18.8435  -24.7349  -38.9227 H   0  0  0  0  0  0  0  0  0  0  0  0
  -18.6953  -23.0892  -39.5449 H   0  0  0  0  0  0  0  0  0  0  0  0
  -16.5181  -26.7678  -36.7829 H   0  0  0  0  0  0  0  0  0  0  0  0
  -17.2088  -25.6737  -35.5450 H   0  0  0  0  0  0  0  0  0  0  0  0
  -15.2664  -24.4811  -40.3546 H   0  0  0  0  0  0  0  0  0  0  0  0
  -17.4663  -25.6395  -40.6914 H   0  0  0  0  0  0  0  0  0  0  0  0
  -15.5646  -25.9179  -38.6396 H   0  0  0  0  0  0  0  0  0  0  0  0
  -12.9684  -25.3218  -34.7463 H   0  0  0  0  0  0  0  0  0  0  0  0
  -14.7999  -24.6994  -35.5470 H   0  0  0  0  0  0  0  0  0  0  0  0
  -14.9204  -21.5318  -38.2685 H   0  0  0  0  0  0  0  0  0  0  0  0
  1 12  1  0  0  0  0
  1 15  1  0  0  0  0
  1 18  2  0  0  0  0
  2 13  1  0  0  0  0
  2 19  2  0  0  0  0
  2 21  1  0  0  0  0
  3 16  1  0  0  0  0
  3 17  1  0  0  0  0
  3 20  2  0  0  0  0
  4  5  1  0  0  0  0
  4  6  1  0  0  0  0
  5  7  1  0  0  0  0
  6  8  1  0  0  0  0
  7  9  1  0  0  0  0
  8  9  1  0  0  0  0
  9 16  1  0  0  0  0
 10 14  1  0  0  0  0
 11 14  1  0  0  0  0
 12 17  1  0  0  0  0
 13 14  1  0  0  0  0
 13 15  1  0  0  0  0
  4 22  1  0  0  0  0
  4 23  1  0  0  0  0
  5 24  1  0  0  0  0
  5 25  1  0  0  0  0
  6 26  1  0  0  0  0
  6 27  1  0  0  0  0
  7 28  1  0  0  0  0
  7 29  1  0  0  0  0
  8 30  1  0  0  0  0
  8 31  1  0  0  0  0
  9 32  1  0  0  0  0
 10 33  1  0  0  0  0
 10 34  1  0  0  0  0
 10 35  1  0  0  0  0
 11 36  1  0  0  0  0
 11 37  1  0  0  0  0
 11 38  1  0  0  0  0
 12 39  1  0  0  0  0
 12 40  1  0  0  0  0
 13 41  1  0  0  0  0
 14 42  1  0  0  0  0
 15 43  1  0  0  0  0
 16 44  1  0  0  0  0
 17 45  1  0  0  0  0
 21 46  1  0  0  0  0
M  END
> <Name>
IA_10

> <SourceTag>
IA_10

> <Gold.Version>
5.2

> <Gold.Id.Protein>
6HGV|6HGV_protein|mol2

> <Gold.Goldscore.Fitness>
61.6607

> <Gold.Goldscore.Internal.Vdw>
-2.2005

> <Gold.Goldscore.Internal.Torsion>
-3.2642

> <Gold.Goldscore.External.Vdw>
42.8351

> <Gold.Goldscore.Internal.HBond>
0.0000

> <Gold.Goldscore.External.HBond>
4.8642

> <Gold.Goldscore.Internal.Correction>
-3.3629

> <Gold.Goldscore.Hbonds>
donor molecule, donor type, donor heavy atom, donor atom, acceptor molecule, acceptor atom, score
      L1  H    15    43       P1  1247  0.20
      L1  H    16    44       P1   853  0.04
      L1  H    17    45       P1   853  0.70
      L1  H    21    46       P1   302  0.02

> <Gold.Goldscore.Internal.Vdw.Weighted>
-2.2005

> <Gold.Goldscore.Internal.Torsion.Weighted>
-3.2642

> <Gold.Goldscore.External.Vdw.Weighted>
58.8983

> <Gold.Goldscore.Internal.HBond.Weighted>
0.0000

> <Gold.Goldscore.External.HBond.Weighted>
4.8642

> <Gold.Goldscore.Internal.Correction.Weighted>
-3.3629

> <Gold.Protein.RotatedTorsions>
[ 3781 1176 1175 1172 ] final  127.73 input   60.00 | X-H torsion
[ 3847 1247 1246 1244 ] final  141.80 input   60.00 | X-H torsion
[ 4507 1931 1930 1928 ] final   10.44 input   60.00 | X-H torsion
[ 3677 1070 1069 1066 ] final  -75.71 input   60.00 | X-H torsion
[ 3525  925  924  922 ] final   69.80 input   59.99 | X-H torsion
[ 4531 1957 1955 1953 ] final   84.23 input   60.00 | X-H torsion

> <Gold.Protein.ActiveResidues>
 PHE267  PRO268  MET310  ASP335  TRP336  MET339  TYR343  THR360  PRO361  ILE363
 PRO371  SER374  ILE375  ASN378  PHE381  TYR383  GLN384  PHE387  LEU408  LEU417
 MET419  LEU428  TYR466  MET469  ASN472  ASP496  VAL498  LEU499  MET503  HIS524
 TRP525

> <Gold.Protein.RotatedAtoms>
   -2.6617  -29.9204  -30.8394 H   0  0  0  0  0  0  0  0  0  0  0  0  # atno 3525 bound_to 925
  -12.0970  -23.8445  -31.2904 H   0  0  0  0  0  0  0  0  0  0  0  0  # atno 3677 bound_to 1070
   -9.7383  -37.0092  -32.3873 H   0  0  0  0  0  0  0  0  0  0  0  0  # atno 3781 bound_to 1176
  -14.3419  -27.9561  -37.8833 H   0  0  0  0  0  0  0  0  0  0  0  0  # atno 3847 bound_to 1247
  -13.1445  -25.2415  -38.9804 H   0  0  0  0  0  0  0  0  0  0  0  0  # atno 4507 bound_to 1931
   -2.8658  -33.7564  -36.7090 H   0  0  0  0  0  0  0  0  0  0  0  0  # atno 4531 bound_to 1957
  -10.8292  -37.2945  -33.5606 LP  0  0  0  0  0  0  0  0  0  0  0  0  # atno 5205 bound_to 1176
   -9.5453  -36.3285  -33.8527 LP  0  0  0  0  0  0  0  0  0  0  0  0  # atno 5206 bound_to 1176
  -15.4088  -28.9026  -37.0997 LP  0  0  0  0  0  0  0  0  0  0  0  0  # atno 5215 bound_to 1247
  -15.8198  -27.3793  -37.5211 LP  0  0  0  0  0  0  0  0  0  0  0  0  # atno 5216 bound_to 1247
  -13.5718  -24.6356  -40.4289 LP  0  0  0  0  0  0  0  0  0  0  0  0  # atno 5217 bound_to 1931
  -12.4779  -23.8523  -39.5036 LP  0  0  0  0  0  0  0  0  0  0  0  0  # atno 5218 bound_to 1931
  -11.1381  -22.5557  -31.0308 LP  0  0  0  0  0  0  0  0  0  0  0  0  # atno 5224 bound_to 1070
  -12.6179  -22.6274  -30.3441 LP  0  0  0  0  0  0  0  0  0  0  0  0  # atno 5225 bound_to 1070

$$$$
IA_10|SeH_inactivess_minimized|sdf|1|dock4
  -GOLD-   4172118163D 1   1.00000     0.00000

 46 46  0  0  0  0  0  0  0  0  1 V2000
  -17.4005  -25.6086  -36.8050 C   0  0  0  0  0  0  0  0  0  0  0  0
  -17.4737  -23.0072  -39.1489 C   0  0  0  0  0  0  0  0  0  0  0  0
  -14.4634  -26.4869  -35.5857 C   0  0  0  0  0  0  0  0  0  0  0  0
  -10.0797  -26.0699  -33.6223 C   0  0  0  0  0  0  0  0  0  0  0  0
  -10.2679  -25.2123  -34.8700 C   0  0  0  0  0  0  0  0  0  0  0  0
  -11.3397  -26.8613  -33.2857 C   0  0  0  0  0  0  0  0  0  0  0  0
  -10.7419  -26.0453  -36.0610 C   0  0  0  0  0  0  0  0  0  0  0  0
  -11.8153  -27.6970  -34.4740 C   0  0  0  0  0  0  0  0  0  0  0  0
  -12.0009  -26.8589  -35.7435 C   0  0  0  0  0  0  0  0  0  0  0  0
  -20.6109  -24.2721  -37.1792 C   0  0  0  0  0  0  0  0  0  0  0  0
  -20.6256  -23.4283  -39.5457 C   0  0  0  0  0  0  0  0  0  0  0  0
  -16.8097  -25.6690  -35.4125 C   0  0  0  0  0  0  0  0  0  0  0  0
  -18.3912  -23.9722  -38.4034 C   0  0  2  0  0  0  0  0  0  0  0  0
  -19.8406  -23.4692  -38.2310 C   0  0  0  0  0  0  0  0  0  0  0  0
  -17.8303  -24.3276  -37.1196 N   0  0  0  0  0  0  0  0  0  0  0  0
  -13.1603  -26.0013  -35.6354 N   0  0  0  0  0  0  0  0  0  0  0  0
  -15.3845  -25.4476  -35.4822 N   0  0  0  0  0  0  0  0  0  0  0  0
  -17.4423  -26.5762  -37.5605 O   0  0  0  0  0  0  0  0  0  0  0  0
  -17.2269  -23.0948  -40.3463 O   0  0  0  0  0  0  0  0  0  0  0  0
  -14.7652  -27.6789  -35.6272 O   0  0  0  0  0  0  0  0  0  0  0  0
  -16.8992  -22.0592  -38.3682 O   0  0  0  0  0  0  0  0  0  0  0  0
   -9.2452  -26.7642  -33.7804 H   0  0  0  0  0  0  0  0  0  0  0  0
   -9.8071  -25.4319  -32.7740 H   0  0  0  0  0  0  0  0  0  0  0  0
  -10.9946  -24.4177  -34.6617 H   0  0  0  0  0  0  0  0  0  0  0  0
   -9.3225  -24.7183  -35.1217 H   0  0  0  0  0  0  0  0  0  0  0  0
  -11.1428  -27.5185  -32.4311 H   0  0  0  0  0  0  0  0  0  0  0  0
  -12.1342  -26.1707  -32.9775 H   0  0  0  0  0  0  0  0  0  0  0  0
  -10.9188  -25.3848  -36.9184 H   0  0  0  0  0  0  0  0  0  0  0  0
   -9.9379  -26.7335  -36.3518 H   0  0  0  0  0  0  0  0  0  0  0  0
  -11.0744  -28.4822  -34.6716 H   0  0  0  0  0  0  0  0  0  0  0  0
  -12.7512  -28.2040  -34.2097 H   0  0  0  0  0  0  0  0  0  0  0  0
  -12.2121  -27.5294  -36.5842 H   0  0  0  0  0  0  0  0  0  0  0  0
  -20.6494  -25.3304  -37.4602 H   0  0  0  0  0  0  0  0  0  0  0  0
  -21.6424  -23.9154  -37.0936 H   0  0  0  0  0  0  0  0  0  0  0  0
  -20.1437  -24.2132  -36.1920 H   0  0  0  0  0  0  0  0  0  0  0  0
  -21.6096  -22.9662  -39.4170 H   0  0  0  0  0  0  0  0  0  0  0  0
  -20.0826  -22.8444  -40.2972 H   0  0  0  0  0  0  0  0  0  0  0  0
  -20.7710  -24.4335  -39.9533 H   0  0  0  0  0  0  0  0  0  0  0  0
  -16.9792  -26.6501  -34.9596 H   0  0  0  0  0  0  0  0  0  0  0  0
  -17.2547  -24.8890  -34.7888 H   0  0  0  0  0  0  0  0  0  0  0  0
  -18.3863  -24.9052  -38.9800 H   0  0  0  0  0  0  0  0  0  0  0  0
  -19.7897  -22.4372  -37.8561 H   0  0  0  0  0  0  0  0  0  0  0  0
  -17.7468  -23.6032  -36.4125 H   0  0  0  0  0  0  0  0  0  0  0  0
  -13.0168  -24.9980  -35.5938 H   0  0  0  0  0  0  0  0  0  0  0  0
  -15.0406  -24.4952  -35.4079 H   0  0  0  0  0  0  0  0  0  0  0  0
  -16.2102  -21.5200  -38.8096 H   0  0  0  0  0  0  0  0  0  0  0  0
  1 12  1  0  0  0  0
  1 15  1  0  0  0  0
  1 18  2  0  0  0  0
  2 13  1  0  0  0  0
  2 19  2  0  0  0  0
  2 21  1  0  0  0  0
  3 16  1  0  0  0  0
  3 17  1  0  0  0  0
  3 20  2  0  0  0  0
  4  5  1  0  0  0  0
  4  6  1  0  0  0  0
  5  7  1  0  0  0  0
  6  8  1  0  0  0  0
  7  9  1  0  0  0  0
  8  9  1  0  0  0  0
  9 16  1  0  0  0  0
 10 14  1  0  0  0  0
 11 14  1  0  0  0  0
 12 17  1  0  0  0  0
 13 14  1  0  0  0  0
 13 15  1  0  0  0  0
  4 22  1  0  0  0  0
  4 23  1  0  0  0  0
  5 24  1  0  0  0  0
  5 25  1  0  0  0  0
  6 26  1  0  0  0  0
  6 27  1  0  0  0  0
  7 28  1  0  0  0  0
  7 29  1  0  0  0  0
  8 30  1  0  0  0  0
  8 31  1  0  0  0  0
  9 32  1  0  0  0  0
 10 33  1  0  0  0  0
 10 34  1  0  0  0  0
 10 35  1  0  0  0  0
 11 36  1  0  0  0  0
 11 37  1  0  0  0  0
 11 38  1  0  0  0  0
 12 39  1  0  0  0  0
 12 40  1  0  0  0  0
 13 41  1  0  0  0  0
 14 42  1  0  0  0  0
 15 43  1  0  0  0  0
 16 44  1  0  0  0  0
 17 45  1  0  0  0  0
 21 46  1  0  0  0  0
M  END
> <Name>
IA_10

> <SourceTag>
IA_10

> <Gold.Version>
5.2

> <Gold.Id.Protein>
6HGV|6HGV_protein|mol2

> <Gold.Goldscore.Fitness>
61.6096

> <Gold.Goldscore.Internal.Vdw>
-2.7202

> <Gold.Goldscore.Internal.Torsion>
-3.7601

> <Gold.Goldscore.External.Vdw>
42.3927

> <Gold.Goldscore.Internal.HBond>
0.0000

> <Gold.Goldscore.External.HBond>
6.4372

> <Gold.Goldscore.Internal.Correction>
-3.3629

> <Gold.Goldscore.Hbonds>
donor molecule, donor type, donor heavy atom, donor atom, acceptor molecule, acceptor atom, score
      L1  H    15    43       P1  2419  0.07
      L1  H    16    44       P1   853  0.14
      L1  H    17    45       P1   853  0.60
      L1  H    21    46       P1   302  0.94

> <Gold.Goldscore.Internal.Vdw.Weighted>
-2.7202

> <Gold.Goldscore.Internal.Torsion.Weighted>
-3.7601

> <Gold.Goldscore.External.Vdw.Weighted>
58.2899

> <Gold.Goldscore.Internal.HBond.Weighted>
0.0000

> <Gold.Goldscore.External.HBond.Weighted>
6.4372

> <Gold.Goldscore.Internal.Correction.Weighted>
-3.3629

> <Gold.Protein.RotatedTorsions>
[ 3781 1176 1175 1172 ] final -157.84 input   60.00 | X-H torsion
[ 3847 1247 1246 1244 ] final  153.35 input   60.00 | X-H torsion
[ 4507 1931 1930 1928 ] final  -10.48 input   60.00 | X-H torsion
[ 3677 1070 1069 1066 ] final   84.82 input   60.00 | X-H torsion
[ 3525  925  924  922 ] final  -10.83 input   59.99 | X-H torsion
[ 4531 1957 1955 1953 ] final  169.13 input   60.00 | X-H torsion

> <Gold.Protein.ActiveResidues>
 PHE267  PRO268  MET310  ASP335  TRP336  MET339  TYR343  THR360  PRO361  ILE363
 PRO371  SER374  ILE375  ASN378  PHE381  TYR383  GLN384  PHE387  LEU408  LEU417
 MET419  LEU428  TYR466  MET469  ASN472  ASP496  VAL498  LEU499  MET503  HIS524
 TRP525

> <Gold.Protein.RotatedAtoms>
   -3.6827  -29.5226  -30.3228 H   0  0  0  0  0  0  0  0  0  0  0  0  # atno 3525 bound_to 925
  -12.0957  -22.2406  -30.3776 H   0  0  0  0  0  0  0  0  0  0  0  0  # atno 3677 bound_to 1070
   -9.2471  -36.3805  -33.1909 H   0  0  0  0  0  0  0  0  0  0  0  0  # atno 3781 bound_to 1176
  -14.4062  -27.7838  -37.9239 H   0  0  0  0  0  0  0  0  0  0  0  0  # atno 3847 bound_to 1247
  -13.3632  -25.3582  -39.2131 H   0  0  0  0  0  0  0  0  0  0  0  0  # atno 4507 bound_to 1931
   -1.6307  -33.8811  -36.9460 H   0  0  0  0  0  0  0  0  0  0  0  0  # atno 4531 bound_to 1957
  -10.3568  -37.3671  -32.5251 LP  0  0  0  0  0  0  0  0  0  0  0  0  # atno 5205 bound_to 1176
  -10.5124  -36.8890  -34.0788 LP  0  0  0  0  0  0  0  0  0  0  0  0  # atno 5206 bound_to 1176
  -15.2327  -28.9523  -37.1498 LP  0  0  0  0  0  0  0  0  0  0  0  0  # atno 5215 bound_to 1247
  -15.9311  -27.5031  -37.4301 LP  0  0  0  0  0  0  0  0  0  0  0  0  # atno 5216 bound_to 1247
  -13.4005  -24.3447  -40.4857 LP  0  0  0  0  0  0  0  0  0  0  0  0  # atno 5217 bound_to 1931
  -12.4290  -24.0258  -39.2124 LP  0  0  0  0  0  0  0  0  0  0  0  0  # atno 5218 bound_to 1931
  -12.6188  -23.6751  -30.9403 LP  0  0  0  0  0  0  0  0  0  0  0  0  # atno 5224 bound_to 1070
  -11.1386  -23.1232  -31.3538 LP  0  0  0  0  0  0  0  0  0  0  0  0  # atno 5225 bound_to 1070

$$$$
IA_10|SeH_inactivess_minimized|sdf|1|dock10
  -GOLD-   4172118173D 1   1.00000     0.00000

 46 46  0  0  0  0  0  0  0  0  1 V2000
  -17.5406  -25.3947  -36.8230 C   0  0  0  0  0  0  0  0  0  0  0  0
  -19.4920  -24.0206  -38.7384 C   0  0  0  0  0  0  0  0  0  0  0  0
  -14.6066  -26.3913  -35.6553 C   0  0  0  0  0  0  0  0  0  0  0  0
  -10.1486  -26.0511  -33.8125 C   0  0  0  0  0  0  0  0  0  0  0  0
  -10.3557  -25.2151  -35.0717 C   0  0  0  0  0  0  0  0  0  0  0  0
  -11.4169  -26.8016  -33.4180 C   0  0  0  0  0  0  0  0  0  0  0  0
  -10.8900  -26.0599  -36.2283 C   0  0  0  0  0  0  0  0  0  0  0  0
  -11.9529  -27.6490  -34.5719 C   0  0  0  0  0  0  0  0  0  0  0  0
  -12.1585  -26.8331  -35.8525 C   0  0  0  0  0  0  0  0  0  0  0  0
  -15.6261  -24.2653  -39.3038 C   0  0  0  0  0  0  0  0  0  0  0  0
  -17.3155  -23.6487  -41.0583 C   0  0  0  0  0  0  0  0  0  0  0  0
  -16.9256  -25.5072  -35.4443 C   0  0  0  0  0  0  0  0  0  0  0  0
  -18.0086  -23.6959  -38.5863 C   0  0  2  0  0  0  0  0  0  0  0  0
  -17.1082  -24.2979  -39.6865 C   0  0  0  0  0  0  0  0  0  0  0  0
  -17.5280  -24.0848  -37.2799 N   0  0  0  0  0  0  0  0  0  0  0  0
  -13.2912  -25.9429  -35.7256 N   0  0  0  0  0  0  0  0  0  0  0  0
  -15.4960  -25.3263  -35.5367 N   0  0  0  0  0  0  0  0  0  0  0  0
  -17.9519  -26.3630  -37.4572 O   0  0  0  0  0  0  0  0  0  0  0  0
  -19.9735  -24.5384  -39.7396 O   0  0  0  0  0  0  0  0  0  0  0  0
  -14.9427  -27.5742  -35.6925 O   0  0  0  0  0  0  0  0  0  0  0  0
  -20.2622  -23.6418  -37.6889 O   0  0  0  0  0  0  0  0  0  0  0  0
   -9.3380  -26.7704  -33.9824 H   0  0  0  0  0  0  0  0  0  0  0  0
   -9.8318  -25.4030  -32.9875 H   0  0  0  0  0  0  0  0  0  0  0  0
  -11.0544  -24.3973  -34.8573 H   0  0  0  0  0  0  0  0  0  0  0  0
   -9.4067  -24.7517  -35.3646 H   0  0  0  0  0  0  0  0  0  0  0  0
  -11.2089  -27.4458  -32.5562 H   0  0  0  0  0  0  0  0  0  0  0  0
  -12.1827  -26.0839  -33.0993 H   0  0  0  0  0  0  0  0  0  0  0  0
  -11.0780  -25.4130  -37.0937 H   0  0  0  0  0  0  0  0  0  0  0  0
  -10.1141  -26.7751  -36.5300 H   0  0  0  0  0  0  0  0  0  0  0  0
  -11.2394  -28.4576  -34.7762 H   0  0  0  0  0  0  0  0  0  0  0  0
  -12.8923  -28.1254  -34.2663 H   0  0  0  0  0  0  0  0  0  0  0  0
  -12.4146  -27.5151  -36.6712 H   0  0  0  0  0  0  0  0  0  0  0  0
  -15.0138  -24.6762  -40.1143 H   0  0  0  0  0  0  0  0  0  0  0  0
  -15.4399  -24.8700  -38.4103 H   0  0  0  0  0  0  0  0  0  0  0  0
  -15.2724  -23.2486  -39.1107 H   0  0  0  0  0  0  0  0  0  0  0  0
  -18.3591  -23.7100  -41.3832 H   0  0  0  0  0  0  0  0  0  0  0  0
  -17.0422  -22.5882  -41.0246 H   0  0  0  0  0  0  0  0  0  0  0  0
  -16.6918  -24.1243  -41.8215 H   0  0  0  0  0  0  0  0  0  0  0  0
  -17.1159  -26.4938  -35.0122 H   0  0  0  0  0  0  0  0  0  0  0  0
  -17.3351  -24.7301  -34.7933 H   0  0  0  0  0  0  0  0  0  0  0  0
  -17.9326  -22.6019  -38.5994 H   0  0  0  0  0  0  0  0  0  0  0  0
  -17.3775  -25.3586  -39.7902 H   0  0  0  0  0  0  0  0  0  0  0  0
  -17.1628  -23.3630  -36.6656 H   0  0  0  0  0  0  0  0  0  0  0  0
  -13.1185  -24.9441  -35.6859 H   0  0  0  0  0  0  0  0  0  0  0  0
  -15.1240  -24.3842  -35.4674 H   0  0  0  0  0  0  0  0  0  0  0  0
  -21.2021  -23.9133  -37.7449 H   0  0  0  0  0  0  0  0  0  0  0  0
  1 12  1  0  0  0  0
  1 15  1  0  0  0  0
  1 18  2  0  0  0  0
  2 13  1  0  0  0  0
  2 19  2  0  0  0  0
  2 21  1  0  0  0  0
  3 16  1  0  0  0  0
  3 17  1  0  0  0  0
  3 20  2  0  0  0  0
  4  5  1  0  0  0  0
  4  6  1  0  0  0  0
  5  7  1  0  0  0  0
  6  8  1  0  0  0  0
  7  9  1  0  0  0  0
  8  9  1  0  0  0  0
  9 16  1  0  0  0  0
 10 14  1  0  0  0  0
 11 14  1  0  0  0  0
 12 17  1  0  0  0  0
 13 14  1  0  0  0  0
 13 15  1  0  0  0  0
  4 22  1  0  0  0  0
  4 23  1  0  0  0  0
  5 24  1  0  0  0  0
  5 25  1  0  0  0  0
  6 26  1  0  0  0  0
  6 27  1  0  0  0  0
  7 28  1  0  0  0  0
  7 29  1  0  0  0  0
  8 30  1  0  0  0  0
  8 31  1  0  0  0  0
  9 32  1  0  0  0  0
 10 33  1  0  0  0  0
 10 34  1  0  0  0  0
 10 35  1  0  0  0  0
 11 36  1  0  0  0  0
 11 37  1  0  0  0  0
 11 38  1  0  0  0  0
 12 39  1  0  0  0  0
 12 40  1  0  0  0  0
 13 41  1  0  0  0  0
 14 42  1  0  0  0  0
 15 43  1  0  0  0  0
 16 44  1  0  0  0  0
 17 45  1  0  0  0  0
 21 46  1  0  0  0  0
M  END
> <Name>
IA_10

> <SourceTag>
IA_10

> <Gold.Version>
5.2

> <Gold.Id.Protein>
6HGV|6HGV_protein|mol2

> <Gold.Goldscore.Fitness>
61.4717

> <Gold.Goldscore.Internal.Vdw>
-0.5229

> <Gold.Goldscore.Internal.Torsion>
-3.4697

> <Gold.Goldscore.External.Vdw>
42.1438

> <Gold.Goldscore.Internal.HBond>
0.0000

> <Gold.Goldscore.External.HBond>
4.1536

> <Gold.Goldscore.Internal.Correction>
-3.3629

> <Gold.Goldscore.Hbonds>
donor molecule, donor type, donor heavy atom, donor atom, acceptor molecule, acceptor atom, score
      L1  H    15    43       P1  2419  0.04
      L1  H    16    44       P1   853  0.15
      L1  H    17    45       P1   853  0.53

> <Gold.Goldscore.Internal.Vdw.Weighted>
-0.5229

> <Gold.Goldscore.Internal.Torsion.Weighted>
-3.4697

> <Gold.Goldscore.External.Vdw.Weighted>
57.9478

> <Gold.Goldscore.Internal.HBond.Weighted>
0.0000

> <Gold.Goldscore.External.HBond.Weighted>
4.1536

> <Gold.Goldscore.Internal.Correction.Weighted>
-3.3629

> <Gold.Protein.RotatedTorsions>
[ 3781 1176 1175 1172 ] final   88.31 input   60.00 | X-H torsion
[ 3847 1247 1246 1244 ] final  173.36 input   60.00 | X-H torsion
[ 4507 1931 1930 1928 ] final   22.36 input   60.00 | X-H torsion
[ 3677 1070 1069 1066 ] final -126.50 input   60.00 | X-H torsion
[ 3525  925  924  922 ] final   80.60 input   59.99 | X-H torsion
[ 4531 1957 1955 1953 ] final  132.97 input   60.00 | X-H torsion

> <Gold.Protein.ActiveResidues>
 PHE267  PRO268  MET310  ASP335  TRP336  MET339  TYR343  THR360  PRO361  ILE363
 PRO371  SER374  ILE375  ASN378  PHE381  TYR383  GLN384  PHE387  LEU408  LEU417
 MET419  LEU428  TYR466  MET469  ASN472  ASP496  VAL498  LEU499  MET503  HIS524
 TRP525

> <Gold.Protein.RotatedAtoms>
   -2.5123  -29.9911  -30.7782 H   0  0  0  0  0  0  0  0  0  0  0  0  # atno 3525 bound_to 925
  -11.3858  -23.5063  -31.4474 H   0  0  0  0  0  0  0  0  0  0  0  0  # atno 3677 bound_to 1070
  -10.2735  -37.3312  -32.4807 H   0  0  0  0  0  0  0  0  0  0  0  0  # atno 3781 bound_to 1176
  -14.5904  -27.5173  -37.9536 H   0  0  0  0  0  0  0  0  0  0  0  0  # atno 3847 bound_to 1247
  -13.0133  -25.1345  -38.8850 H   0  0  0  0  0  0  0  0  0  0  0  0  # atno 4507 bound_to 1931
   -2.1721  -34.0674  -36.8463 H   0  0  0  0  0  0  0  0  0  0  0  0  # atno 4531 bound_to 1957
  -10.5785  -36.9503  -34.0331 LP  0  0  0  0  0  0  0  0  0  0  0  0  # atno 5205 bound_to 1176
   -9.2570  -36.3484  -33.2861 LP  0  0  0  0  0  0  0  0  0  0  0  0  # atno 5206 bound_to 1176
  -14.9275  -28.9545  -37.2688 LP  0  0  0  0  0  0  0  0  0  0  0  0  # atno 5215 bound_to 1247
  -16.0507  -27.7693  -37.2813 LP  0  0  0  0  0  0  0  0  0  0  0  0  # atno 5216 bound_to 1247
  -13.6407  -24.8004  -40.3488 LP  0  0  0  0  0  0  0  0  0  0  0  0  # atno 5217 bound_to 1931
  -12.5412  -23.7953  -39.6798 LP  0  0  0  0  0  0  0  0  0  0  0  0  # atno 5218 bound_to 1931
  -11.6695  -22.1765  -30.5535 LP  0  0  0  0  0  0  0  0  0  0  0  0  # atno 5224 bound_to 1070
  -12.8027  -23.3472  -30.6631 LP  0  0  0  0  0  0  0  0  0  0  0  0  # atno 5225 bound_to 1070

$$$$
IA_10|SeH_inactivess_minimized|sdf|1|dock2
  -GOLD-   4172118163D 1   1.00000     0.00000

 46 46  0  0  0  0  0  0  0  0  1 V2000
  -16.4469  -24.4425  -37.2815 C   0  0  0  0  0  0  0  0  0  0  0  0
  -19.3939  -23.8983  -39.5661 C   0  0  0  0  0  0  0  0  0  0  0  0
  -13.8680  -25.5706  -36.2715 C   0  0  0  0  0  0  0  0  0  0  0  0
   -9.9757  -27.4643  -34.0927 C   0  0  0  0  0  0  0  0  0  0  0  0
  -10.3294  -26.0600  -33.6125 C   0  0  0  0  0  0  0  0  0  0  0  0
  -10.9522  -27.9606  -35.1545 C   0  0  0  0  0  0  0  0  0  0  0  0
  -10.4389  -25.0763  -34.7775 C   0  0  0  0  0  0  0  0  0  0  0  0
  -11.0626  -26.9800  -36.3220 C   0  0  0  0  0  0  0  0  0  0  0  0
  -11.4062  -25.5588  -35.8635 C   0  0  0  0  0  0  0  0  0  0  0  0
  -17.2433  -22.6877  -41.3405 C   0  0  0  0  0  0  0  0  0  0  0  0
  -16.6459  -25.0604  -40.7690 C   0  0  0  0  0  0  0  0  0  0  0  0
  -16.3579  -25.5214  -36.2232 C   0  0  0  0  0  0  0  0  0  0  0  0
  -17.9682  -23.6413  -39.0865 C   0  0  2  0  0  0  0  0  0  0  0  0
  -16.9058  -23.6595  -40.2065 C   0  0  0  0  0  0  0  0  0  0  0  0
  -17.6035  -24.5664  -38.0376 N   0  0  0  0  0  0  0  0  0  0  0  0
  -12.7776  -25.4754  -35.4123 N   0  0  0  0  0  0  0  0  0  0  0  0
  -15.0689  -25.4576  -35.5754 N   0  0  0  0  0  0  0  0  0  0  0  0
  -15.6097  -23.5524  -37.4069 O   0  0  0  0  0  0  0  0  0  0  0  0
  -19.6747  -24.2243  -40.7138 O   0  0  0  0  0  0  0  0  0  0  0  0
  -13.7847  -25.7337  -37.4880 O   0  0  0  0  0  0  0  0  0  0  0  0
  -20.3506  -23.6864  -38.6289 O   0  0  0  0  0  0  0  0  0  0  0  0
   -8.9592  -27.4626  -34.5053 H   0  0  0  0  0  0  0  0  0  0  0  0
   -9.9731  -28.1552  -33.2421 H   0  0  0  0  0  0  0  0  0  0  0  0
  -11.2780  -26.0894  -33.0627 H   0  0  0  0  0  0  0  0  0  0  0  0
   -9.5662  -25.7100  -32.9082 H   0  0  0  0  0  0  0  0  0  0  0  0
  -10.6239  -28.9378  -35.5267 H   0  0  0  0  0  0  0  0  0  0  0  0
  -11.9401  -28.1099  -34.7020 H   0  0  0  0  0  0  0  0  0  0  0  0
  -10.7490  -24.0957  -34.3965 H   0  0  0  0  0  0  0  0  0  0  0  0
   -9.4438  -24.9436  -35.2212 H   0  0  0  0  0  0  0  0  0  0  0  0
  -10.1041  -26.9592  -36.8564 H   0  0  0  0  0  0  0  0  0  0  0  0
  -11.8136  -27.3452  -37.0328 H   0  0  0  0  0  0  0  0  0  0  0  0
  -11.3410  -24.8825  -36.7234 H   0  0  0  0  0  0  0  0  0  0  0  0
  -17.9710  -23.1380  -42.0247 H   0  0  0  0  0  0  0  0  0  0  0  0
  -16.3497  -22.4423  -41.9236 H   0  0  0  0  0  0  0  0  0  0  0  0
  -17.6781  -21.7555  -40.9689 H   0  0  0  0  0  0  0  0  0  0  0  0
  -15.7679  -25.0792  -41.4226 H   0  0  0  0  0  0  0  0  0  0  0  0
  -16.4670  -25.7720  -39.9554 H   0  0  0  0  0  0  0  0  0  0  0  0
  -17.5050  -25.4247  -41.3408 H   0  0  0  0  0  0  0  0  0  0  0  0
  -16.4651  -26.5143  -36.6692 H   0  0  0  0  0  0  0  0  0  0  0  0
  -17.1355  -25.3650  -35.4708 H   0  0  0  0  0  0  0  0  0  0  0  0
  -17.9818  -22.6577  -38.6013 H   0  0  0  0  0  0  0  0  0  0  0  0
  -15.9597  -23.3090  -39.7702 H   0  0  0  0  0  0  0  0  0  0  0  0
  -18.2251  -25.3462  -37.8445 H   0  0  0  0  0  0  0  0  0  0  0  0
  -12.9531  -25.3412  -34.4221 H   0  0  0  0  0  0  0  0  0  0  0  0
  -15.0416  -25.3709  -34.5643 H   0  0  0  0  0  0  0  0  0  0  0  0
  -21.2715  -23.8050  -38.9421 H   0  0  0  0  0  0  0  0  0  0  0  0
  1 12  1  0  0  0  0
  1 15  1  0  0  0  0
  1 18  2  0  0  0  0
  2 13  1  0  0  0  0
  2 19  2  0  0  0  0
  2 21  1  0  0  0  0
  3 16  1  0  0  0  0
  3 17  1  0  0  0  0
  3 20  2  0  0  0  0
  4  5  1  0  0  0  0
  4  6  1  0  0  0  0
  5  7  1  0  0  0  0
  6  8  1  0  0  0  0
  7  9  1  0  0  0  0
  8  9  1  0  0  0  0
  9 16  1  0  0  0  0
 10 14  1  0  0  0  0
 11 14  1  0  0  0  0
 12 17  1  0  0  0  0
 13 14  1  0  0  0  0
 13 15  1  0  0  0  0
  4 22  1  0  0  0  0
  4 23  1  0  0  0  0
  5 24  1  0  0  0  0
  5 25  1  0  0  0  0
  6 26  1  0  0  0  0
  6 27  1  0  0  0  0
  7 28  1  0  0  0  0
  7 29  1  0  0  0  0
  8 30  1  0  0  0  0
  8 31  1  0  0  0  0
  9 32  1  0  0  0  0
 10 33  1  0  0  0  0
 10 34  1  0  0  0  0
 10 35  1  0  0  0  0
 11 36  1  0  0  0  0
 11 37  1  0  0  0  0
 11 38  1  0  0  0  0
 12 39  1  0  0  0  0
 12 40  1  0  0  0  0
 13 41  1  0  0  0  0
 14 42  1  0  0  0  0
 15 43  1  0  0  0  0
 16 44  1  0  0  0  0
 17 45  1  0  0  0  0
 21 46  1  0  0  0  0
M  END
> <Name>
IA_10

> <SourceTag>
IA_10

> <Gold.Version>
5.2

> <Gold.Id.Protein>
6HGV|6HGV_protein|mol2

> <Gold.Goldscore.Fitness>
61.2079

> <Gold.Goldscore.Internal.Vdw>
-1.2145

> <Gold.Goldscore.Internal.Torsion>
-3.6844

> <Gold.Goldscore.External.Vdw>
44.4379

> <Gold.Goldscore.Internal.HBond>
0.0000

> <Gold.Goldscore.External.HBond>
1.6417

> <Gold.Goldscore.Internal.Correction>
-3.3629

> <Gold.Goldscore.Hbonds>
donor molecule, donor type, donor heavy atom, donor atom, acceptor molecule, acceptor atom, score
      P1  H  1247  3847       L1    20  0.12
      P1  H  1931  4507       L1    20  0.70

> <Gold.Goldscore.Internal.Vdw.Weighted>
-1.2145

> <Gold.Goldscore.Internal.Torsion.Weighted>
-3.6844

> <Gold.Goldscore.External.Vdw.Weighted>
61.1022

> <Gold.Goldscore.Internal.HBond.Weighted>
0.0000

> <Gold.Goldscore.External.HBond.Weighted>
1.6417

> <Gold.Goldscore.Internal.Correction.Weighted>
-3.3629

> <Gold.Protein.RotatedTorsions>
[ 3781 1176 1175 1172 ] final  168.66 input   60.00 | X-H torsion
[ 3847 1247 1246 1244 ] final  167.90 input   60.00 | X-H torsion
[ 4507 1931 1930 1928 ] final   20.33 input   60.00 | X-H torsion
[ 3677 1070 1069 1066 ] final -128.78 input   60.00 | X-H torsion
[ 3525  925  924  922 ] final -172.17 input   59.99 | X-H torsion
[ 4531 1957 1955 1953 ] final  -10.43 input   60.00 | X-H torsion

> <Gold.Protein.ActiveResidues>
 PHE267  PRO268  MET310  ASP335  TRP336  MET339  TYR343  THR360  PRO361  ILE363
 PRO371  SER374  ILE375  ASN378  PHE381  TYR383  GLN384  PHE387  LEU408  LEU417
 MET419  LEU428  TYR466  MET469  ASN472  ASP496  VAL498  LEU499  MET503  HIS524
 TRP525

> <Gold.Protein.RotatedAtoms>
   -2.3075  -30.2155  -29.3018 H   0  0  0  0  0  0  0  0  0  0  0  0  # atno 3525 bound_to 925
  -11.3604  -23.4793  -31.4445 H   0  0  0  0  0  0  0  0  0  0  0  0  # atno 3677 bound_to 1070
   -9.3289  -36.6146  -32.7116 H   0  0  0  0  0  0  0  0  0  0  0  0  # atno 3781 bound_to 1176
  -14.5318  -27.5846  -37.9508 H   0  0  0  0  0  0  0  0  0  0  0  0  # atno 3847 bound_to 1247
  -13.0357  -25.1545  -38.8990 H   0  0  0  0  0  0  0  0  0  0  0  0  # atno 4507 bound_to 1931
   -2.7332  -32.3859  -36.7106 H   0  0  0  0  0  0  0  0  0  0  0  0  # atno 4531 bound_to 1957
  -10.7083  -37.4495  -32.9313 LP  0  0  0  0  0  0  0  0  0  0  0  0  # atno 5205 bound_to 1176
  -10.0785  -36.5709  -34.1553 LP  0  0  0  0  0  0  0  0  0  0  0  0  # atno 5206 bound_to 1176
  -15.0092  -28.9646  -37.2328 LP  0  0  0  0  0  0  0  0  0  0  0  0  # atno 5215 bound_to 1247
  -16.0280  -27.6914  -37.3200 LP  0  0  0  0  0  0  0  0  0  0  0  0  # atno 5216 bound_to 1247
  -13.6306  -24.7728  -40.3647 LP  0  0  0  0  0  0  0  0  0  0  0  0  # atno 5217 bound_to 1931
  -12.5287  -23.8027  -39.6497 LP  0  0  0  0  0  0  0  0  0  0  0  0  # atno 5218 bound_to 1931
  -11.7023  -22.1734  -30.5357 LP  0  0  0  0  0  0  0  0  0  0  0  0  # atno 5224 bound_to 1070
  -12.7955  -23.3775  -30.6840 LP  0  0  0  0  0  0  0  0  0  0  0  0  # atno 5225 bound_to 1070

$$$$
IA_10|SeH_inactivess_minimized|sdf|1|dock1
  -GOLD-   4172118153D 1   1.00000     0.00000

 46 46  0  0  0  0  0  0  0  0  1 V2000
   -7.6667  -32.2631  -35.7142 C   0  0  0  0  0  0  0  0  0  0  0  0
   -4.9900  -33.1251  -34.9029 C   0  0  0  0  0  0  0  0  0  0  0  0
  -10.5046  -30.0084  -34.8675 C   0  0  0  0  0  0  0  0  0  0  0  0
  -10.8461  -24.9609  -35.1164 C   0  0  0  0  0  0  0  0  0  0  0  0
  -10.1187  -25.7112  -34.0049 C   0  0  0  0  0  0  0  0  0  0  0  0
  -11.3690  -25.9102  -36.1901 C   0  0  0  0  0  0  0  0  0  0  0  0
  -10.9912  -26.8127  -33.4030 C   0  0  0  0  0  0  0  0  0  0  0  0
  -12.2436  -27.0119  -35.5918 C   0  0  0  0  0  0  0  0  0  0  0  0
  -11.5382  -27.7731  -34.4643 C   0  0  0  0  0  0  0  0  0  0  0  0
   -4.9685  -29.4144  -33.6787 C   0  0  0  0  0  0  0  0  0  0  0  0
   -3.4423  -31.3495  -33.1899 C   0  0  0  0  0  0  0  0  0  0  0  0
   -9.1385  -31.9999  -35.4773 C   0  0  0  0  0  0  0  0  0  0  0  0
   -5.4331  -31.6700  -34.7795 C   0  0  2  0  0  0  0  0  0  0  0  0
   -4.8749  -30.9364  -33.5411 C   0  0  0  0  0  0  0  0  0  0  0  0
   -6.8743  -31.5663  -34.8134 N   0  0  0  0  0  0  0  0  0  0  0  0
  -10.4903  -28.6221  -34.9865 N   0  0  0  0  0  0  0  0  0  0  0  0
   -9.3776  -30.5760  -35.4566 N   0  0  0  0  0  0  0  0  0  0  0  0
   -7.2513  -33.0361  -36.5738 O   0  0  0  0  0  0  0  0  0  0  0  0
   -4.1973  -33.5230  -35.7489 O   0  0  0  0  0  0  0  0  0  0  0  0
  -11.3959  -30.6514  -34.3146 O   0  0  0  0  0  0  0  0  0  0  0  0
   -5.5856  -33.9717  -34.0273 O   0  0  0  0  0  0  0  0  0  0  0  0
  -11.6850  -24.3989  -34.6876 H   0  0  0  0  0  0  0  0  0  0  0  0
  -10.1700  -24.2274  -35.5701 H   0  0  0  0  0  0  0  0  0  0  0  0
   -9.1940  -26.1473  -34.4022 H   0  0  0  0  0  0  0  0  0  0  0  0
   -9.8239  -25.0068  -33.2188 H   0  0  0  0  0  0  0  0  0  0  0  0
  -11.9471  -25.3447  -36.9298 H   0  0  0  0  0  0  0  0  0  0  0  0
  -10.5232  -26.3589  -36.7253 H   0  0  0  0  0  0  0  0  0  0  0  0
  -10.4135  -27.3625  -32.6502 H   0  0  0  0  0  0  0  0  0  0  0  0
  -11.8342  -26.3465  -32.8772 H   0  0  0  0  0  0  0  0  0  0  0  0
  -13.1602  -26.5574  -35.1945 H   0  0  0  0  0  0  0  0  0  0  0  0
  -12.5512  -27.7026  -36.3861 H   0  0  0  0  0  0  0  0  0  0  0  0
  -12.2557  -28.4535  -33.9918 H   0  0  0  0  0  0  0  0  0  0  0  0
   -4.2828  -29.0588  -34.4557 H   0  0  0  0  0  0  0  0  0  0  0  0
   -4.6914  -28.9197  -32.7421 H   0  0  0  0  0  0  0  0  0  0  0  0
   -5.9744  -29.0866  -33.9561 H   0  0  0  0  0  0  0  0  0  0  0  0
   -3.0420  -30.7605  -32.3585 H   0  0  0  0  0  0  0  0  0  0  0  0
   -3.4102  -32.4036  -32.8930 H   0  0  0  0  0  0  0  0  0  0  0  0
   -2.7725  -31.2293  -34.0470 H   0  0  0  0  0  0  0  0  0  0  0  0
   -9.4581  -32.4119  -34.5159 H   0  0  0  0  0  0  0  0  0  0  0  0
   -9.7270  -32.4416  -36.2860 H   0  0  0  0  0  0  0  0  0  0  0  0
   -5.0939  -31.1688  -35.6942 H   0  0  0  0  0  0  0  0  0  0  0  0
   -5.5061  -31.2088  -32.6834 H   0  0  0  0  0  0  0  0  0  0  0  0
   -7.3297  -30.9525  -34.1444 H   0  0  0  0  0  0  0  0  0  0  0  0
   -9.7075  -28.1861  -35.4622 H   0  0  0  0  0  0  0  0  0  0  0  0
   -8.7161  -29.9694  -35.9312 H   0  0  0  0  0  0  0  0  0  0  0  0
   -5.3314  -34.9133  -34.1225 H   0  0  0  0  0  0  0  0  0  0  0  0
  1 12  1  0  0  0  0
  1 15  1  0  0  0  0
  1 18  2  0  0  0  0
  2 13  1  0  0  0  0
  2 19  2  0  0  0  0
  2 21  1  0  0  0  0
  3 16  1  0  0  0  0
  3 17  1  0  0  0  0
  3 20  2  0  0  0  0
  4  5  1  0  0  0  0
  4  6  1  0  0  0  0
  5  7  1  0  0  0  0
  6  8  1  0  0  0  0
  7  9  1  0  0  0  0
  8  9  1  0  0  0  0
  9 16  1  0  0  0  0
 10 14  1  0  0  0  0
 11 14  1  0  0  0  0
 12 17  1  0  0  0  0
 13 14  1  0  0  0  0
 13 15  1  0  0  0  0
  4 22  1  0  0  0  0
  4 23  1  0  0  0  0
  5 24  1  0  0  0  0
  5 25  1  0  0  0  0
  6 26  1  0  0  0  0
  6 27  1  0  0  0  0
  7 28  1  0  0  0  0
  7 29  1  0  0  0  0
  8 30  1  0  0  0  0
  8 31  1  0  0  0  0
  9 32  1  0  0  0  0
 10 33  1  0  0  0  0
 10 34  1  0  0  0  0
 10 35  1  0  0  0  0
 11 36  1  0  0  0  0
 11 37  1  0  0  0  0
 11 38  1  0  0  0  0
 12 39  1  0  0  0  0
 12 40  1  0  0  0  0
 13 41  1  0  0  0  0
 14 42  1  0  0  0  0
 15 43  1  0  0  0  0
 16 44  1  0  0  0  0
 17 45  1  0  0  0  0
 21 46  1  0  0  0  0
M  END
> <Name>
IA_10

> <SourceTag>
IA_10

> <Gold.Version>
5.2

> <Gold.Id.Protein>
6HGV|6HGV_protein|mol2

> <Gold.Goldscore.Fitness>
58.4182

> <Gold.Goldscore.Internal.Vdw>
-2.1173

> <Gold.Goldscore.Internal.Torsion>
-3.6084

> <Gold.Goldscore.External.Vdw>
42.8405

> <Gold.Goldscore.Internal.HBond>
0.0000

> <Gold.Goldscore.External.HBond>
1.8753

> <Gold.Goldscore.Internal.Correction>
-3.3629

> <Gold.Goldscore.Hbonds>
donor molecule, donor type, donor heavy atom, donor atom, acceptor molecule, acceptor atom, score
      P1  H  1957  4531       L1    19  0.94

> <Gold.Goldscore.Internal.Vdw.Weighted>
-2.1173

> <Gold.Goldscore.Internal.Torsion.Weighted>
-3.6084

> <Gold.Goldscore.External.Vdw.Weighted>
58.9057

> <Gold.Goldscore.Internal.HBond.Weighted>
0.0000

> <Gold.Goldscore.External.HBond.Weighted>
1.8753

> <Gold.Goldscore.Internal.Correction.Weighted>
-3.3629

> <Gold.Protein.RotatedTorsions>
[ 3781 1176 1175 1172 ] final -158.53 input   60.00 | X-H torsion
[ 3847 1247 1246 1244 ] final   90.25 input   60.00 | X-H torsion
[ 4507 1931 1930 1928 ] final   -7.48 input   60.00 | X-H torsion
[ 3677 1070 1069 1066 ] final  -99.90 input   60.00 | X-H torsion
[ 3525  925  924  922 ] final  -47.49 input   59.99 | X-H torsion
[ 4531 1957 1955 1953 ] final   50.77 input   60.00 | X-H torsion

> <Gold.Protein.ActiveResidues>
 PHE267  PRO268  MET310  ASP335  TRP336  MET339  TYR343  THR360  PRO361  ILE363
 PRO371  SER374  ILE375  ASN378  PHE381  TYR383  GLN384  PHE387  LEU408  LEU417
 MET419  LEU428  TYR466  MET469  ASN472  ASP496  VAL498  LEU499  MET503  HIS524
 TRP525

> <Gold.Protein.RotatedAtoms>
   -3.7589  -29.5427  -29.7393 H   0  0  0  0  0  0  0  0  0  0  0  0  # atno 3525 bound_to 925
  -11.7364  -23.7545  -31.4164 H   0  0  0  0  0  0  0  0  0  0  0  0  # atno 3677 bound_to 1070
   -9.2461  -36.3838  -33.1801 H   0  0  0  0  0  0  0  0  0  0  0  0  # atno 3781 bound_to 1176
  -14.4776  -28.6867  -37.5505 H   0  0  0  0  0  0  0  0  0  0  0  0  # atno 3847 bound_to 1247
  -13.3337  -25.3475  -39.1755 H   0  0  0  0  0  0  0  0  0  0  0  0  # atno 4507 bound_to 1931
   -3.0894  -33.2685  -36.6581 H   0  0  0  0  0  0  0  0  0  0  0  0  # atno 4531 bound_to 1957
  -10.3656  -37.3707  -32.5314 LP  0  0  0  0  0  0  0  0  0  0  0  0  # atno 5205 bound_to 1176
  -10.5046  -36.8821  -34.0834 LP  0  0  0  0  0  0  0  0  0  0  0  0  # atno 5206 bound_to 1176
  -15.9966  -28.3310  -37.0877 LP  0  0  0  0  0  0  0  0  0  0  0  0  # atno 5215 bound_to 1247
  -15.0953  -27.2152  -37.8683 LP  0  0  0  0  0  0  0  0  0  0  0  0  # atno 5216 bound_to 1247
  -13.4284  -24.3853  -40.4844 LP  0  0  0  0  0  0  0  0  0  0  0  0  # atno 5217 bound_to 1931
  -12.4309  -23.9958  -39.2516 LP  0  0  0  0  0  0  0  0  0  0  0  0  # atno 5218 bound_to 1931
  -11.3324  -22.3065  -30.7934 LP  0  0  0  0  0  0  0  0  0  0  0  0  # atno 5224 bound_to 1070
  -12.7868  -22.9672  -30.4546 LP  0  0  0  0  0  0  0  0  0  0  0  0  # atno 5225 bound_to 1070

$$$$
IA_10|SeH_inactivess_minimized|sdf|1|dock3
  -GOLD-   4172118163D 1   1.00000     0.00000

 46 46  0  0  0  0  0  0  0  0  1 V2000
   -9.8182  -28.4378  -34.5359 C   0  0  0  0  0  0  0  0  0  0  0  0
  -12.9574  -27.1948  -35.9055 C   0  0  0  0  0  0  0  0  0  0  0  0
   -6.3909  -29.8589  -34.6675 C   0  0  0  0  0  0  0  0  0  0  0  0
   -4.0631  -33.7113  -33.0161 C   0  0  0  0  0  0  0  0  0  0  0  0
   -4.3850  -32.6987  -31.9213 C   0  0  0  0  0  0  0  0  0  0  0  0
   -4.5604  -33.2448  -34.3807 C   0  0  0  0  0  0  0  0  0  0  0  0
   -3.8540  -31.3072  -32.2660 C   0  0  0  0  0  0  0  0  0  0  0  0
   -4.0297  -31.8543  -34.7295 C   0  0  0  0  0  0  0  0  0  0  0  0
   -4.3310  -30.8211  -33.6387 C   0  0  0  0  0  0  0  0  0  0  0  0
  -11.2899  -24.6667  -35.7579 C   0  0  0  0  0  0  0  0  0  0  0  0
  -10.3953  -25.3804  -33.5211 C   0  0  0  0  0  0  0  0  0  0  0  0
   -8.6505  -29.0240  -35.3006 C   0  0  0  0  0  0  0  0  0  0  0  0
  -11.8283  -27.0081  -34.8958 C   0  0  2  0  0  0  0  0  0  0  0  0
  -11.5425  -25.5373  -34.5239 C   0  0  0  0  0  0  0  0  0  0  0  0
  -10.6176  -27.6516  -35.3530 N   0  0  0  0  0  0  0  0  0  0  0  0
   -5.7382  -30.4885  -33.6120 N   0  0  0  0  0  0  0  0  0  0  0  0
   -7.7382  -29.6579  -34.3782 N   0  0  0  0  0  0  0  0  0  0  0  0
  -10.0354  -28.6787  -33.3511 O   0  0  0  0  0  0  0  0  0  0  0  0
  -12.7723  -27.3801  -37.1029 O   0  0  0  0  0  0  0  0  0  0  0  0
   -5.8504  -29.5230  -35.7203 O   0  0  0  0  0  0  0  0  0  0  0  0
  -14.2039  -27.0879  -35.3831 O   0  0  0  0  0  0  0  0  0  0  0  0
   -2.9783  -33.8691  -33.0584 H   0  0  0  0  0  0  0  0  0  0  0  0
   -4.5162  -34.6781  -32.7691 H   0  0  0  0  0  0  0  0  0  0  0  0
   -5.4706  -32.6539  -31.7720 H   0  0  0  0  0  0  0  0  0  0  0  0
   -3.9488  -33.0325  -30.9730 H   0  0  0  0  0  0  0  0  0  0  0  0
   -4.2468  -33.9600  -35.1497 H   0  0  0  0  0  0  0  0  0  0  0  0
   -5.6572  -33.2344  -34.3867 H   0  0  0  0  0  0  0  0  0  0  0  0
   -4.1546  -30.6000  -31.4835 H   0  0  0  0  0  0  0  0  0  0  0  0
   -2.7569  -31.3376  -32.2612 H   0  0  0  0  0  0  0  0  0  0  0  0
   -2.9428  -31.9168  -34.8694 H   0  0  0  0  0  0  0  0  0  0  0  0
   -4.4544  -31.5337  -35.6884 H   0  0  0  0  0  0  0  0  0  0  0  0
   -3.8153  -29.8855  -33.8832 H   0  0  0  0  0  0  0  0  0  0  0  0
  -10.4182  -25.0332  -36.3113 H   0  0  0  0  0  0  0  0  0  0  0  0
  -11.0862  -23.6303  -35.4697 H   0  0  0  0  0  0  0  0  0  0  0  0
  -12.1395  -24.6713  -36.4466 H   0  0  0  0  0  0  0  0  0  0  0  0
   -9.4331  -25.6686  -33.9563 H   0  0  0  0  0  0  0  0  0  0  0  0
  -10.3114  -24.3373  -33.1964 H   0  0  0  0  0  0  0  0  0  0  0  0
  -10.5623  -25.9899  -32.6276 H   0  0  0  0  0  0  0  0  0  0  0  0
   -8.1038  -28.2425  -35.8360 H   0  0  0  0  0  0  0  0  0  0  0  0
   -9.0124  -29.7760  -36.0069 H   0  0  0  0  0  0  0  0  0  0  0  0
  -12.1235  -27.5687  -34.0005 H   0  0  0  0  0  0  0  0  0  0  0  0
  -12.4458  -25.1367  -34.0425 H   0  0  0  0  0  0  0  0  0  0  0  0
  -10.3380  -27.5217  -36.3208 H   0  0  0  0  0  0  0  0  0  0  0  0
   -6.2750  -30.7255  -32.7845 H   0  0  0  0  0  0  0  0  0  0  0  0
   -8.1076  -30.0103  -33.5006 H   0  0  0  0  0  0  0  0  0  0  0  0
  -14.9341  -27.1823  -36.0297 H   0  0  0  0  0  0  0  0  0  0  0  0
  1 12  1  0  0  0  0
  1 15  1  0  0  0  0
  1 18  2  0  0  0  0
  2 13  1  0  0  0  0
  2 19  2  0  0  0  0
  2 21  1  0  0  0  0
  3 16  1  0  0  0  0
  3 17  1  0  0  0  0
  3 20  2  0  0  0  0
  4  5  1  0  0  0  0
  4  6  1  0  0  0  0
  5  7  1  0  0  0  0
  6  8  1  0  0  0  0
  7  9  1  0  0  0  0
  8  9  1  0  0  0  0
  9 16  1  0  0  0  0
 10 14  1  0  0  0  0
 11 14  1  0  0  0  0
 12 17  1  0  0  0  0
 13 14  1  0  0  0  0
 13 15  1  0  0  0  0
  4 22  1  0  0  0  0
  4 23  1  0  0  0  0
  5 24  1  0  0  0  0
  5 25  1  0  0  0  0
  6 26  1  0  0  0  0
  6 27  1  0  0  0  0
  7 28  1  0  0  0  0
  7 29  1  0  0  0  0
  8 30  1  0  0  0  0
  8 31  1  0  0  0  0
  9 32  1  0  0  0  0
 10 33  1  0  0  0  0
 10 34  1  0  0  0  0
 10 35  1  0  0  0  0
 11 36  1  0  0  0  0
 11 37  1  0  0  0  0
 11 38  1  0  0  0  0
 12 39  1  0  0  0  0
 12 40  1  0  0  0  0
 13 41  1  0  0  0  0
 14 42  1  0  0  0  0
 15 43  1  0  0  0  0
 16 44  1  0  0  0  0
 17 45  1  0  0  0  0
 21 46  1  0  0  0  0
M  END
> <Name>
IA_10

> <SourceTag>
IA_10

> <Gold.Version>
5.2

> <Gold.Id.Protein>
6HGV|6HGV_protein|mol2

> <Gold.Goldscore.Fitness>
56.5174

> <Gold.Goldscore.Internal.Vdw>
-1.4882

> <Gold.Goldscore.Internal.Torsion>
-3.1518

> <Gold.Goldscore.External.Vdw>
41.5193

> <Gold.Goldscore.Internal.HBond>
0.0000

> <Gold.Goldscore.External.HBond>
0.7056

> <Gold.Goldscore.Internal.Correction>
-3.3629

> <Gold.Goldscore.Hbonds>
donor molecule, donor type, donor heavy atom, donor atom, acceptor molecule, acceptor atom, score
      P1  H  1931  4507       L1    19  0.05
      P1  H  1994  4571       L1    20  0.27
      L1  H    21    46       P1  1247  0.04

> <Gold.Goldscore.Internal.Vdw.Weighted>
-1.4882

> <Gold.Goldscore.Internal.Torsion.Weighted>
-3.1518

> <Gold.Goldscore.External.Vdw.Weighted>
57.0890

> <Gold.Goldscore.Internal.HBond.Weighted>
0.0000

> <Gold.Goldscore.External.HBond.Weighted>
0.7056

> <Gold.Goldscore.Internal.Correction.Weighted>
-3.3629

> <Gold.Protein.RotatedTorsions>
[ 3781 1176 1175 1172 ] final  -61.61 input   60.00 | X-H torsion
[ 3847 1247 1246 1244 ] final   41.57 input   60.00 | X-H torsion
[ 4507 1931 1930 1928 ] final   19.34 input   60.00 | X-H torsion
[ 3677 1070 1069 1066 ] final  -80.23 input   60.00 | X-H torsion
[ 3525  925  924  922 ] final  158.30 input   59.99 | X-H torsion
[ 4531 1957 1955 1953 ] final  -75.15 input   60.00 | X-H torsion

> <Gold.Protein.ActiveResidues>
 PHE267  PRO268  MET310  ASP335  TRP336  MET339  TYR343  THR360  PRO361  ILE363
 PRO371  SER374  ILE375  ASN378  PHE381  TYR383  GLN384  PHE387  LEU408  LEU417
 MET419  LEU428  TYR466  MET469  ASN472  ASP496  VAL498  LEU499  MET503  HIS524
 TRP525

> <Gold.Protein.RotatedAtoms>
   -2.0865  -30.2735  -29.7206 H   0  0  0  0  0  0  0  0  0  0  0  0  # atno 3525 bound_to 925
  -12.0296  -23.8387  -31.3202 H   0  0  0  0  0  0  0  0  0  0  0  0  # atno 3677 bound_to 1070
  -10.2103  -36.6605  -34.1588 H   0  0  0  0  0  0  0  0  0  0  0  0  # atno 3781 bound_to 1176
  -15.1073  -28.9609  -37.1985 H   0  0  0  0  0  0  0  0  0  0  0  0  # atno 3847 bound_to 1247
  -13.0466  -25.1641  -38.9062 H   0  0  0  0  0  0  0  0  0  0  0  0  # atno 4507 bound_to 1931
   -1.7518  -32.3009  -36.8957 H   0  0  0  0  0  0  0  0  0  0  0  0  # atno 4531 bound_to 1957
   -9.2740  -36.5289  -32.8344 LP  0  0  0  0  0  0  0  0  0  0  0  0  # atno 5205 bound_to 1176
  -10.6252  -37.4452  -32.7949 LP  0  0  0  0  0  0  0  0  0  0  0  0  # atno 5206 bound_to 1176
  -15.9922  -27.6056  -37.3669 LP  0  0  0  0  0  0  0  0  0  0  0  0  # atno 5215 bound_to 1247
  -14.4655  -27.6644  -37.9436 LP  0  0  0  0  0  0  0  0  0  0  0  0  # atno 5216 bound_to 1247
  -13.6254  -24.7592  -40.3722 LP  0  0  0  0  0  0  0  0  0  0  0  0  # atno 5217 bound_to 1931
  -12.5229  -23.8067  -39.6350 LP  0  0  0  0  0  0  0  0  0  0  0  0  # atno 5218 bound_to 1931
  -11.1643  -22.5014  -30.9870 LP  0  0  0  0  0  0  0  0  0  0  0  0  # atno 5224 bound_to 1070
  -12.6596  -22.6876  -30.3578 LP  0  0  0  0  0  0  0  0  0  0  0  0  # atno 5225 bound_to 1070

$$$$
IA_10|SeH_inactivess_minimized|sdf|1|dock6
  -GOLD-   4172118163D 1   1.00000     0.00000

 46 46  0  0  0  0  0  0  0  0  1 V2000
  -10.2095  -32.5569  -34.2163 C   0  0  0  0  0  0  0  0  0  0  0  0
   -8.2787  -34.6562  -35.1426 C   0  0  0  0  0  0  0  0  0  0  0  0
  -10.7326  -29.4892  -34.9787 C   0  0  0  0  0  0  0  0  0  0  0  0
  -11.6331  -24.6898  -34.4265 C   0  0  0  0  0  0  0  0  0  0  0  0
  -12.2332  -25.7594  -35.3338 C   0  0  0  0  0  0  0  0  0  0  0  0
  -10.5739  -25.2694  -33.4941 C   0  0  0  0  0  0  0  0  0  0  0  0
  -11.1526  -26.5110  -36.1111 C   0  0  0  0  0  0  0  0  0  0  0  0
   -9.4906  -26.0201  -34.2685 C   0  0  0  0  0  0  0  0  0  0  0  0
  -10.0700  -27.0933  -35.1963 C   0  0  0  0  0  0  0  0  0  0  0  0
   -7.3796  -30.8576  -34.9996 C   0  0  0  0  0  0  0  0  0  0  0  0
   -5.7123  -32.6988  -35.3779 C   0  0  0  0  0  0  0  0  0  0  0  0
  -11.4971  -31.7684  -34.3268 C   0  0  0  0  0  0  0  0  0  0  0  0
   -8.2234  -33.1955  -35.5808 C   0  0  2  0  0  0  0  0  0  0  0  0
   -7.1239  -32.3630  -34.8869 C   0  0  0  0  0  0  0  0  0  0  0  0
   -9.5105  -32.5594  -35.4147 N   0  0  0  0  0  0  0  0  0  0  0  0
  -10.5779  -28.2159  -34.4393 N   0  0  0  0  0  0  0  0  0  0  0  0
  -11.2390  -30.3782  -34.0339 N   0  0  0  0  0  0  0  0  0  0  0  0
   -9.8299  -33.0824  -33.1729 O   0  0  0  0  0  0  0  0  0  0  0  0
   -7.2839  -35.3265  -34.8903 O   0  0  0  0  0  0  0  0  0  0  0  0
  -10.4581  -29.7929  -36.1388 O   0  0  0  0  0  0  0  0  0  0  0  0
   -9.5263  -35.1853  -35.1012 O   0  0  0  0  0  0  0  0  0  0  0  0
  -11.1837  -23.9007  -35.0420 H   0  0  0  0  0  0  0  0  0  0  0  0
  -12.4272  -24.2195  -33.8356 H   0  0  0  0  0  0  0  0  0  0  0  0
  -12.8146  -26.4670  -34.7304 H   0  0  0  0  0  0  0  0  0  0  0  0
  -12.9331  -25.2937  -36.0369 H   0  0  0  0  0  0  0  0  0  0  0  0
  -10.1153  -24.4616  -32.9126 H   0  0  0  0  0  0  0  0  0  0  0  0
  -11.0506  -25.9462  -32.7746 H   0  0  0  0  0  0  0  0  0  0  0  0
  -11.6195  -27.3055  -36.7058 H   0  0  0  0  0  0  0  0  0  0  0  0
  -10.6831  -25.8182  -36.8212 H   0  0  0  0  0  0  0  0  0  0  0  0
   -8.9234  -25.2984  -34.8702 H   0  0  0  0  0  0  0  0  0  0  0  0
   -8.7826  -26.4677  -33.5605 H   0  0  0  0  0  0  0  0  0  0  0  0
   -9.2630  -27.5010  -35.8156 H   0  0  0  0  0  0  0  0  0  0  0  0
   -7.5382  -30.5751  -36.0463 H   0  0  0  0  0  0  0  0  0  0  0  0
   -6.5216  -30.2868  -34.6299 H   0  0  0  0  0  0  0  0  0  0  0  0
   -8.2662  -30.5469  -34.4397 H   0  0  0  0  0  0  0  0  0  0  0  0
   -4.9551  -32.0711  -34.8974 H   0  0  0  0  0  0  0  0  0  0  0  0
   -5.4673  -33.7426  -35.1523 H   0  0  0  0  0  0  0  0  0  0  0  0
   -5.6268  -32.5683  -36.4612 H   0  0  0  0  0  0  0  0  0  0  0  0
  -12.2401  -32.1338  -33.6121 H   0  0  0  0  0  0  0  0  0  0  0  0
  -11.8899  -31.8444  -35.3442 H   0  0  0  0  0  0  0  0  0  0  0  0
   -8.0539  -33.2078  -36.6643 H   0  0  0  0  0  0  0  0  0  0  0  0
   -7.1554  -32.6025  -33.8145 H   0  0  0  0  0  0  0  0  0  0  0  0
   -9.9240  -32.0908  -36.2155 H   0  0  0  0  0  0  0  0  0  0  0  0
  -10.8336  -28.0680  -33.4688 H   0  0  0  0  0  0  0  0  0  0  0  0
  -11.3928  -30.0489  -33.0859 H   0  0  0  0  0  0  0  0  0  0  0  0
   -9.6116  -36.0057  -34.5721 H   0  0  0  0  0  0  0  0  0  0  0  0
  1 12  1  0  0  0  0
  1 15  1  0  0  0  0
  1 18  2  0  0  0  0
  2 13  1  0  0  0  0
  2 19  2  0  0  0  0
  2 21  1  0  0  0  0
  3 16  1  0  0  0  0
  3 17  1  0  0  0  0
  3 20  2  0  0  0  0
  4  5  1  0  0  0  0
  4  6  1  0  0  0  0
  5  7  1  0  0  0  0
  6  8  1  0  0  0  0
  7  9  1  0  0  0  0
  8  9  1  0  0  0  0
  9 16  1  0  0  0  0
 10 14  1  0  0  0  0
 11 14  1  0  0  0  0
 12 17  1  0  0  0  0
 13 14  1  0  0  0  0
 13 15  1  0  0  0  0
  4 22  1  0  0  0  0
  4 23  1  0  0  0  0
  5 24  1  0  0  0  0
  5 25  1  0  0  0  0
  6 26  1  0  0  0  0
  6 27  1  0  0  0  0
  7 28  1  0  0  0  0
  7 29  1  0  0  0  0
  8 30  1  0  0  0  0
  8 31  1  0  0  0  0
  9 32  1  0  0  0  0
 10 33  1  0  0  0  0
 10 34  1  0  0  0  0
 10 35  1  0  0  0  0
 11 36  1  0  0  0  0
 11 37  1  0  0  0  0
 11 38  1  0  0  0  0
 12 39  1  0  0  0  0
 12 40  1  0  0  0  0
 13 41  1  0  0  0  0
 14 42  1  0  0  0  0
 15 43  1  0  0  0  0
 16 44  1  0  0  0  0
 17 45  1  0  0  0  0
 21 46  1  0  0  0  0
M  END
> <Name>
IA_10

> <SourceTag>
IA_10

> <Gold.Version>
5.2

> <Gold.Id.Protein>
6HGV|6HGV_protein|mol2

> <Gold.Goldscore.Fitness>
56.0213

> <Gold.Goldscore.Internal.Vdw>
-1.5919

> <Gold.Goldscore.Internal.Torsion>
-5.3566

> <Gold.Goldscore.External.Vdw>
41.0056

> <Gold.Goldscore.Internal.HBond>
0.0000

> <Gold.Goldscore.External.HBond>
3.2242

> <Gold.Goldscore.Internal.Correction>
-3.3629

> <Gold.Goldscore.Hbonds>
donor molecule, donor type, donor heavy atom, donor atom, acceptor molecule, acceptor atom, score
      P1  H  1256  3854       L1    20  0.13
      L1  H    15    43       P1  1255  0.49
      L1  H    21    46       P1  1176  0.99

> <Gold.Goldscore.Internal.Vdw.Weighted>
-1.5919

> <Gold.Goldscore.Internal.Torsion.Weighted>
-5.3566

> <Gold.Goldscore.External.Vdw.Weighted>
56.3827

> <Gold.Goldscore.Internal.HBond.Weighted>
0.0000

> <Gold.Goldscore.External.HBond.Weighted>
3.2242

> <Gold.Goldscore.Internal.Correction.Weighted>
-3.3629

> <Gold.Protein.RotatedTorsions>
[ 3781 1176 1175 1172 ] final   64.21 input   60.00 | X-H torsion
[ 3847 1247 1246 1244 ] final -175.52 input   60.00 | X-H torsion
[ 4507 1931 1930 1928 ] final  128.83 input   60.00 | X-H torsion
[ 3677 1070 1069 1066 ] final  -17.51 input   60.00 | X-H torsion
[ 3525  925  924  922 ] final -123.83 input   59.99 | X-H torsion
[ 4531 1957 1955 1953 ] final  -64.88 input   60.00 | X-H torsion

> <Gold.Protein.ActiveResidues>
 PHE267  PRO268  MET310  ASP335  TRP336  MET339  TYR343  THR360  PRO361  ILE363
 PRO371  SER374  ILE375  ASN378  PHE381  TYR383  GLN384  PHE387  LEU408  LEU417
 MET419  LEU428  TYR466  MET469  ASN472  ASP496  VAL498  LEU499  MET503  HIS524
 TRP525

> <Gold.Protein.RotatedAtoms>
   -2.9653  -29.9559  -29.0055 H   0  0  0  0  0  0  0  0  0  0  0  0  # atno 3525 bound_to 925
  -12.7489  -23.4856  -30.7655 H   0  0  0  0  0  0  0  0  0  0  0  0  # atno 3677 bound_to 1070
  -10.5621  -37.4327  -32.7239 H   0  0  0  0  0  0  0  0  0  0  0  0  # atno 3781 bound_to 1176
  -14.7259  -27.3968  -37.9465 H   0  0  0  0  0  0  0  0  0  0  0  0  # atno 3847 bound_to 1247
  -12.4736  -23.8687  -39.4821 H   0  0  0  0  0  0  0  0  0  0  0  0  # atno 4507 bound_to 1931
   -1.9038  -32.2372  -36.8657 H   0  0  0  0  0  0  0  0  0  0  0  0  # atno 4531 bound_to 1957
  -10.2911  -36.7119  -34.1574 LP  0  0  0  0  0  0  0  0  0  0  0  0  # atno 5205 bound_to 1176
   -9.2538  -36.4845  -32.9168 LP  0  0  0  0  0  0  0  0  0  0  0  0  # atno 5206 bound_to 1176
  -14.7692  -28.9095  -37.3481 LP  0  0  0  0  0  0  0  0  0  0  0  0  # atno 5215 bound_to 1247
  -16.0726  -27.9357  -37.2090 LP  0  0  0  0  0  0  0  0  0  0  0  0  # atno 5216 bound_to 1247
  -13.1646  -25.2574  -38.9900 LP  0  0  0  0  0  0  0  0  0  0  0  0  # atno 5217 bound_to 1931
  -13.5608  -24.6130  -40.4372 LP  0  0  0  0  0  0  0  0  0  0  0  0  # atno 5218 bound_to 1931
  -11.2683  -23.3705  -31.4308 LP  0  0  0  0  0  0  0  0  0  0  0  0  # atno 5224 bound_to 1070
  -11.8313  -22.1740  -30.4726 LP  0  0  0  0  0  0  0  0  0  0  0  0  # atno 5225 bound_to 1070

$$$$
IA_10|SeH_inactivess_minimized|sdf|1|dock5
  -GOLD-   4172118163D 1   1.00000     0.00000

 46 46  0  0  0  0  0  0  0  0  1 V2000
   -7.9638  -32.3439  -35.9360 C   0  0  0  0  0  0  0  0  0  0  0  0
   -5.2914  -33.2979  -34.3370 C   0  0  0  0  0  0  0  0  0  0  0  0
  -10.6529  -29.9947  -34.8679 C   0  0  0  0  0  0  0  0  0  0  0  0
  -10.9431  -24.9550  -35.1410 C   0  0  0  0  0  0  0  0  0  0  0  0
  -10.1039  -25.6553  -34.0766 C   0  0  0  0  0  0  0  0  0  0  0  0
  -11.5660  -25.9508  -36.1145 C   0  0  0  0  0  0  0  0  0  0  0  0
  -10.9058  -26.7302  -33.3429 C   0  0  0  0  0  0  0  0  0  0  0  0
  -12.3704  -27.0261  -35.3840 C   0  0  0  0  0  0  0  0  0  0  0  0
  -11.5514  -27.7367  -34.3011 C   0  0  0  0  0  0  0  0  0  0  0  0
   -5.0835  -30.6373  -32.9375 C   0  0  0  0  0  0  0  0  0  0  0  0
   -5.4041  -29.4365  -35.1211 C   0  0  0  0  0  0  0  0  0  0  0  0
   -9.4085  -32.0149  -35.6256 C   0  0  0  0  0  0  0  0  0  0  0  0
   -5.6721  -31.9882  -35.0217 C   0  0  2  0  0  0  0  0  0  0  0  0
   -4.9539  -30.7426  -34.4595 C   0  0  0  0  0  0  0  0  0  0  0  0
   -7.1039  -31.7922  -34.9974 N   0  0  0  0  0  0  0  0  0  0  0  0
  -10.5567  -28.6067  -34.8885 N   0  0  0  0  0  0  0  0  0  0  0  0
   -9.5627  -30.5845  -35.5027 N   0  0  0  0  0  0  0  0  0  0  0  0
   -7.6229  -33.0505  -36.8812 O   0  0  0  0  0  0  0  0  0  0  0  0
   -6.1107  -34.0909  -33.8873 O   0  0  0  0  0  0  0  0  0  0  0  0
  -11.5796  -30.6216  -34.3564 O   0  0  0  0  0  0  0  0  0  0  0  0
   -3.9567  -33.5016  -34.2129 O   0  0  0  0  0  0  0  0  0  0  0  0
  -11.7378  -24.3756  -34.6549 H   0  0  0  0  0  0  0  0  0  0  0  0
  -10.3198  -24.2415  -35.6917 H   0  0  0  0  0  0  0  0  0  0  0  0
   -9.2215  -26.1075  -34.5454 H   0  0  0  0  0  0  0  0  0  0  0  0
   -9.7356  -24.9170  -33.3554 H   0  0  0  0  0  0  0  0  0  0  0  0
  -12.2184  -25.4189  -36.8162 H   0  0  0  0  0  0  0  0  0  0  0  0
  -10.7759  -26.4218  -36.7119 H   0  0  0  0  0  0  0  0  0  0  0  0
  -10.2527  -27.2460  -32.6287 H   0  0  0  0  0  0  0  0  0  0  0  0
  -11.6943  -26.2422  -32.7558 H   0  0  0  0  0  0  0  0  0  0  0  0
  -13.2450  -26.5555  -34.9168 H   0  0  0  0  0  0  0  0  0  0  0  0
  -12.7525  -27.7512  -36.1127 H   0  0  0  0  0  0  0  0  0  0  0  0
  -12.2143  -28.3964  -33.7298 H   0  0  0  0  0  0  0  0  0  0  0  0
   -6.1207  -30.4227  -32.6570 H   0  0  0  0  0  0  0  0  0  0  0  0
   -4.4612  -29.8253  -32.5477 H   0  0  0  0  0  0  0  0  0  0  0  0
   -4.7943  -31.5642  -32.4340 H   0  0  0  0  0  0  0  0  0  0  0  0
   -4.7500  -28.6000  -34.8551 H   0  0  0  0  0  0  0  0  0  0  0  0
   -5.3868  -29.5349  -36.2122 H   0  0  0  0  0  0  0  0  0  0  0  0
   -6.4267  -29.1759  -34.8311 H   0  0  0  0  0  0  0  0  0  0  0  0
   -9.7179  -32.4723  -34.6814 H   0  0  0  0  0  0  0  0  0  0  0  0
  -10.0498  -32.3673  -36.4380 H   0  0  0  0  0  0  0  0  0  0  0  0
   -5.4239  -32.1148  -36.0825 H   0  0  0  0  0  0  0  0  0  0  0  0
   -3.8813  -30.8559  -34.6714 H   0  0  0  0  0  0  0  0  0  0  0  0
   -7.5002  -31.2219  -34.2562 H   0  0  0  0  0  0  0  0  0  0  0  0
   -9.7504  -28.1849  -35.3370 H   0  0  0  0  0  0  0  0  0  0  0  0
   -8.8674  -29.9858  -35.9371 H   0  0  0  0  0  0  0  0  0  0  0  0
   -3.7046  -34.3033  -33.7088 H   0  0  0  0  0  0  0  0  0  0  0  0
  1 12  1  0  0  0  0
  1 15  1  0  0  0  0
  1 18  2  0  0  0  0
  2 13  1  0  0  0  0
  2 19  2  0  0  0  0
  2 21  1  0  0  0  0
  3 16  1  0  0  0  0
  3 17  1  0  0  0  0
  3 20  2  0  0  0  0
  4  5  1  0  0  0  0
  4  6  1  0  0  0  0
  5  7  1  0  0  0  0
  6  8  1  0  0  0  0
  7  9  1  0  0  0  0
  8  9  1  0  0  0  0
  9 16  1  0  0  0  0
 10 14  1  0  0  0  0
 11 14  1  0  0  0  0
 12 17  1  0  0  0  0
 13 14  1  0  0  0  0
 13 15  1  0  0  0  0
  4 22  1  0  0  0  0
  4 23  1  0  0  0  0
  5 24  1  0  0  0  0
  5 25  1  0  0  0  0
  6 26  1  0  0  0  0
  6 27  1  0  0  0  0
  7 28  1  0  0  0  0
  7 29  1  0  0  0  0
  8 30  1  0  0  0  0
  8 31  1  0  0  0  0
  9 32  1  0  0  0  0
 10 33  1  0  0  0  0
 10 34  1  0  0  0  0
 10 35  1  0  0  0  0
 11 36  1  0  0  0  0
 11 37  1  0  0  0  0
 11 38  1  0  0  0  0
 12 39  1  0  0  0  0
 12 40  1  0  0  0  0
 13 41  1  0  0  0  0
 14 42  1  0  0  0  0
 15 43  1  0  0  0  0
 16 44  1  0  0  0  0
 17 45  1  0  0  0  0
 21 46  1  0  0  0  0
M  END
> <Name>
IA_10

> <SourceTag>
IA_10

> <Gold.Version>
5.2

> <Gold.Id.Protein>
6HGV|6HGV_protein|mol2

> <Gold.Goldscore.Fitness>
54.5957

> <Gold.Goldscore.Internal.Vdw>
-1.9137

> <Gold.Goldscore.Internal.Torsion>
-3.2163

> <Gold.Goldscore.External.Vdw>
40.9911

> <Gold.Goldscore.Internal.HBond>
0.0000

> <Gold.Goldscore.External.HBond>
0.0000

> <Gold.Goldscore.Internal.Correction>
-3.3629

> <Gold.Goldscore.Internal.Vdw.Weighted>
-1.9137

> <Gold.Goldscore.Internal.Torsion.Weighted>
-3.2163

> <Gold.Goldscore.External.Vdw.Weighted>
56.3628

> <Gold.Goldscore.Internal.HBond.Weighted>
0.0000

> <Gold.Goldscore.External.HBond.Weighted>
0.0000

> <Gold.Goldscore.Internal.Correction.Weighted>
-3.3629

> <Gold.Protein.RotatedTorsions>
[ 3781 1176 1175 1172 ] final -123.98 input   60.00 | X-H torsion
[ 3847 1247 1246 1244 ] final -110.13 input   60.00 | X-H torsion
[ 4507 1931 1930 1928 ] final   12.40 input   60.00 | X-H torsion
[ 3677 1070 1069 1066 ] final  -97.58 input   60.00 | X-H torsion
[ 3525  925  924  922 ] final  153.86 input   59.99 | X-H torsion
[ 4531 1957 1955 1953 ] final   18.70 input   60.00 | X-H torsion

> <Gold.Protein.ActiveResidues>
 PHE267  PRO268  MET310  ASP335  TRP336  MET339  TYR343  THR360  PRO361  ILE363
 PRO371  SER374  ILE375  ASN378  PHE381  TYR383  GLN384  PHE387  LEU408  LEU417
 MET419  LEU428  TYR466  MET469  ASN472  ASP496  VAL498  LEU499  MET503  HIS524
 TRP525

> <Gold.Protein.RotatedAtoms>
   -2.0711  -30.2738  -29.7916 H   0  0  0  0  0  0  0  0  0  0  0  0  # atno 3525 bound_to 925
  -11.7704  -23.7693  -31.4081 H   0  0  0  0  0  0  0  0  0  0  0  0  # atno 3677 bound_to 1070
   -9.4306  -36.3123  -33.6997 H   0  0  0  0  0  0  0  0  0  0  0  0  # atno 3781 bound_to 1176
  -15.6753  -27.2876  -37.6156 H   0  0  0  0  0  0  0  0  0  0  0  0  # atno 3847 bound_to 1247
  -13.1231  -25.2258  -38.9626 H   0  0  0  0  0  0  0  0  0  0  0  0  # atno 4507 bound_to 1931
   -3.0205  -32.7558  -36.6624 H   0  0  0  0  0  0  0  0  0  0  0  0  # atno 4531 bound_to 1957
   -9.8943  -37.1187  -32.3645 LP  0  0  0  0  0  0  0  0  0  0  0  0  # atno 5205 bound_to 1176
  -10.7901  -37.2061  -33.7270 LP  0  0  0  0  0  0  0  0  0  0  0  0  # atno 5206 bound_to 1176
  -14.3044  -28.1390  -37.8253 LP  0  0  0  0  0  0  0  0  0  0  0  0  # atno 5215 bound_to 1247
  -15.5813  -28.8161  -37.0651 LP  0  0  0  0  0  0  0  0  0  0  0  0  # atno 5216 bound_to 1247
  -13.5847  -24.6630  -40.4181 LP  0  0  0  0  0  0  0  0  0  0  0  0  # atno 5217 bound_to 1931
  -12.4866  -23.8407  -39.5323 LP  0  0  0  0  0  0  0  0  0  0  0  0  # atno 5218 bound_to 1931
  -11.3082  -22.3256  -30.8161 LP  0  0  0  0  0  0  0  0  0  0  0  0  # atno 5224 bound_to 1070
  -12.7766  -22.9332  -30.4402 LP  0  0  0  0  0  0  0  0  0  0  0  0  # atno 5225 bound_to 1070

$$$$
IA_10|SeH_inactivess_minimized|sdf|1|dock9
  -GOLD-   4172118173D 1   1.00000     0.00000

 46 46  0  0  0  0  0  0  0  0  1 V2000
  -11.7062  -25.7759  -35.3710 C   0  0  0  0  0  0  0  0  0  0  0  0
   -8.9638  -28.2693  -34.6564 C   0  0  0  0  0  0  0  0  0  0  0  0
  -14.3352  -25.4474  -37.6721 C   0  0  0  0  0  0  0  0  0  0  0  0
  -19.0062  -23.5092  -37.7248 C   0  0  0  0  0  0  0  0  0  0  0  0
  -18.5826  -24.5729  -36.7165 C   0  0  0  0  0  0  0  0  0  0  0  0
  -17.8404  -23.0695  -38.6051 C   0  0  0  0  0  0  0  0  0  0  0  0
  -17.9159  -25.7659  -37.4014 C   0  0  0  0  0  0  0  0  0  0  0  0
  -17.1726  -24.2601  -39.2932 C   0  0  0  0  0  0  0  0  0  0  0  0
  -16.7480  -25.3481  -38.3011 C   0  0  0  0  0  0  0  0  0  0  0  0
  -10.6842  -28.8320  -32.2750 C   0  0  0  0  0  0  0  0  0  0  0  0
  -12.1562  -28.8950  -34.3102 C   0  0  0  0  0  0  0  0  0  0  0  0
  -12.0370  -25.2192  -36.7393 C   0  0  0  0  0  0  0  0  0  0  0  0
  -10.1117  -27.3421  -34.2670 C   0  0  2  0  0  0  0  0  0  0  0  0
  -11.2332  -28.0231  -33.4534 C   0  0  0  0  0  0  0  0  0  0  0  0
  -10.6655  -26.6913  -35.4326 N   0  0  0  0  0  0  0  0  0  0  0  0
  -15.6130  -24.9197  -37.5140 N   0  0  0  0  0  0  0  0  0  0  0  0
  -13.4341  -24.8577  -36.7891 N   0  0  0  0  0  0  0  0  0  0  0  0
  -12.2721  -25.4139  -34.3426 O   0  0  0  0  0  0  0  0  0  0  0  0
   -7.7921  -28.0562  -34.3664 O   0  0  0  0  0  0  0  0  0  0  0  0
  -14.0376  -26.3209  -38.4857 O   0  0  0  0  0  0  0  0  0  0  0  0
   -9.3320  -29.3387  -35.4041 O   0  0  0  0  0  0  0  0  0  0  0  0
  -19.8100  -23.9065  -38.3569 H   0  0  0  0  0  0  0  0  0  0  0  0
  -19.4164  -22.6418  -37.1955 H   0  0  0  0  0  0  0  0  0  0  0  0
  -17.8922  -24.1316  -35.9874 H   0  0  0  0  0  0  0  0  0  0  0  0
  -19.4590  -24.9158  -36.1549 H   0  0  0  0  0  0  0  0  0  0  0  0
  -18.1986  -22.3626  -39.3622 H   0  0  0  0  0  0  0  0  0  0  0  0
  -17.1031  -22.5334  -37.9952 H   0  0  0  0  0  0  0  0  0  0  0  0
  -17.5768  -26.4786  -36.6399 H   0  0  0  0  0  0  0  0  0  0  0  0
  -18.6657  -26.2864  -38.0109 H   0  0  0  0  0  0  0  0  0  0  0  0
  -17.8788  -24.6921  -40.0139 H   0  0  0  0  0  0  0  0  0  0  0  0
  -16.3080  -23.9083  -39.8689 H   0  0  0  0  0  0  0  0  0  0  0  0
  -16.4001  -26.2235  -38.8612 H   0  0  0  0  0  0  0  0  0  0  0  0
  -10.1751  -28.1722  -31.5637 H   0  0  0  0  0  0  0  0  0  0  0  0
   -9.9555  -29.5744  -32.6165 H   0  0  0  0  0  0  0  0  0  0  0  0
  -11.4753  -29.3530  -31.7284 H   0  0  0  0  0  0  0  0  0  0  0  0
  -12.5669  -28.3394  -35.1593 H   0  0  0  0  0  0  0  0  0  0  0  0
  -11.6065  -29.7533  -34.7123 H   0  0  0  0  0  0  0  0  0  0  0  0
  -12.9919  -29.2867  -33.7221 H   0  0  0  0  0  0  0  0  0  0  0  0
  -11.8509  -25.9642  -37.5183 H   0  0  0  0  0  0  0  0  0  0  0  0
  -11.4373  -24.3248  -36.9285 H   0  0  0  0  0  0  0  0  0  0  0  0
   -9.6637  -26.5318  -33.6791 H   0  0  0  0  0  0  0  0  0  0  0  0
  -11.8558  -27.2280  -33.0192 H   0  0  0  0  0  0  0  0  0  0  0  0
  -10.2732  -26.9154  -36.3424 H   0  0  0  0  0  0  0  0  0  0  0  0
  -15.7552  -24.2002  -36.8131 H   0  0  0  0  0  0  0  0  0  0  0  0
  -13.7604  -24.1107  -36.1840 H   0  0  0  0  0  0  0  0  0  0  0  0
   -8.5955  -29.9189  -35.6889 H   0  0  0  0  0  0  0  0  0  0  0  0
  1 12  1  0  0  0  0
  1 15  1  0  0  0  0
  1 18  2  0  0  0  0
  2 13  1  0  0  0  0
  2 19  2  0  0  0  0
  2 21  1  0  0  0  0
  3 16  1  0  0  0  0
  3 17  1  0  0  0  0
  3 20  2  0  0  0  0
  4  5  1  0  0  0  0
  4  6  1  0  0  0  0
  5  7  1  0  0  0  0
  6  8  1  0  0  0  0
  7  9  1  0  0  0  0
  8  9  1  0  0  0  0
  9 16  1  0  0  0  0
 10 14  1  0  0  0  0
 11 14  1  0  0  0  0
 12 17  1  0  0  0  0
 13 14  1  0  0  0  0
 13 15  1  0  0  0  0
  4 22  1  0  0  0  0
  4 23  1  0  0  0  0
  5 24  1  0  0  0  0
  5 25  1  0  0  0  0
  6 26  1  0  0  0  0
  6 27  1  0  0  0  0
  7 28  1  0  0  0  0
  7 29  1  0  0  0  0
  8 30  1  0  0  0  0
  8 31  1  0  0  0  0
  9 32  1  0  0  0  0
 10 33  1  0  0  0  0
 10 34  1  0  0  0  0
 10 35  1  0  0  0  0
 11 36  1  0  0  0  0
 11 37  1  0  0  0  0
 11 38  1  0  0  0  0
 12 39  1  0  0  0  0
 12 40  1  0  0  0  0
 13 41  1  0  0  0  0
 14 42  1  0  0  0  0
 15 43  1  0  0  0  0
 16 44  1  0  0  0  0
 17 45  1  0  0  0  0
 21 46  1  0  0  0  0
M  END
> <Name>
IA_10

> <SourceTag>
IA_10

> <Gold.Version>
5.2

> <Gold.Id.Protein>
6HGV|6HGV_protein|mol2

> <Gold.Goldscore.Fitness>
51.8687

> <Gold.Goldscore.Internal.Vdw>
-4.0219

> <Gold.Goldscore.Internal.Torsion>
-3.2169

> <Gold.Goldscore.External.Vdw>
36.6150

> <Gold.Goldscore.Internal.HBond>
0.0000

> <Gold.Goldscore.External.HBond>
5.3991

> <Gold.Goldscore.Internal.Correction>
-3.3629

> <Gold.Goldscore.Hbonds>
donor molecule, donor type, donor heavy atom, donor atom, acceptor molecule, acceptor atom, score
      P1  H  1256  3854       L1    21  0.02
      P1  H  1070  3677       L1    18  0.05
      L1  H    16    44       P1  2419  0.02
      L1  H    17    45       P1   853  0.87

> <Gold.Goldscore.Internal.Vdw.Weighted>
-4.0219

> <Gold.Goldscore.Internal.Torsion.Weighted>
-3.2169

> <Gold.Goldscore.External.Vdw.Weighted>
50.3456

> <Gold.Goldscore.Internal.HBond.Weighted>
0.0000

> <Gold.Goldscore.External.HBond.Weighted>
5.3991

> <Gold.Goldscore.Internal.Correction.Weighted>
-3.3629

> <Gold.Protein.RotatedTorsions>
[ 3781 1176 1175 1172 ] final  -16.90 input   60.00 | X-H torsion
[ 3847 1247 1246 1244 ] final   72.76 input   60.00 | X-H torsion
[ 4507 1931 1930 1928 ] final  119.35 input   60.00 | X-H torsion
[ 3677 1070 1069 1066 ] final  -95.78 input   60.00 | X-H torsion
[ 3525  925  924  922 ] final   -8.10 input   59.99 | X-H torsion
[ 4531 1957 1955 1953 ] final  167.05 input   60.00 | X-H torsion

> <Gold.Protein.ActiveResidues>
 PHE267  PRO268  MET310  ASP335  TRP336  MET339  TYR343  THR360  PRO361  ILE363
 PRO371  SER374  ILE375  ASN378  PHE381  TYR383  GLN384  PHE387  LEU408  LEU417
 MET419  LEU428  TYR466  MET469  ASN472  ASP496  VAL498  LEU499  MET503  HIS524
 TRP525

> <Gold.Protein.RotatedAtoms>
   -3.6636  -29.5272  -30.3628 H   0  0  0  0  0  0  0  0  0  0  0  0  # atno 3525 bound_to 925
  -11.7969  -23.7798  -31.4011 H   0  0  0  0  0  0  0  0  0  0  0  0  # atno 3677 bound_to 1070
  -10.7049  -37.0933  -33.8843 H   0  0  0  0  0  0  0  0  0  0  0  0  # atno 3781 bound_to 1176
  -14.6658  -28.8509  -37.4138 H   0  0  0  0  0  0  0  0  0  0  0  0  # atno 3847 bound_to 1247
  -12.4443  -23.9393  -39.3475 H   0  0  0  0  0  0  0  0  0  0  0  0  # atno 4507 bound_to 1931
   -1.6579  -33.9009  -36.9412 H   0  0  0  0  0  0  0  0  0  0  0  0  # atno 4531 bound_to 1957
   -9.3274  -36.3095  -33.5151 LP  0  0  0  0  0  0  0  0  0  0  0  0  # atno 5205 bound_to 1176
  -10.0738  -37.2287  -32.3905 LP  0  0  0  0  0  0  0  0  0  0  0  0  # atno 5206 bound_to 1176
  -16.0674  -28.0633  -37.1623 LP  0  0  0  0  0  0  0  0  0  0  0  0  # atno 5215 bound_to 1247
  -14.8349  -27.3174  -37.9313 LP  0  0  0  0  0  0  0  0  0  0  0  0  # atno 5216 bound_to 1247
  -13.2669  -25.3195  -39.0899 LP  0  0  0  0  0  0  0  0  0  0  0  0  # atno 5217 bound_to 1931
  -13.4880  -24.4798  -40.4729 LP  0  0  0  0  0  0  0  0  0  0  0  0  # atno 5218 bound_to 1931
  -11.2904  -22.3412  -30.8337 LP  0  0  0  0  0  0  0  0  0  0  0  0  # atno 5224 bound_to 1070
  -12.7679  -22.9071  -30.4296 LP  0  0  0  0  0  0  0  0  0  0  0  0  # atno 5225 bound_to 1070

$$$$
IA_100.cdx|SeH_inactivess_minimized|sdf|2|dock2
  -GOLD-   4172118183D 1   1.00000     0.00000

 59 58  0  0  0  0  0  0  0  0  1 V2000
   -7.9847  -29.8144  -35.4017 C   0  0  0  0  0  0  0  0  0  0  0  0
  -24.1014  -24.9175  -35.1021 C   0  0  0  0  0  0  0  0  0  0  0  0
   -3.8919  -32.6355  -34.9659 C   0  0  0  0  0  0  0  0  0  0  0  0
  -22.7516  -25.3142  -35.6809 C   0  0  0  0  0  0  0  0  0  0  0  0
   -4.5674  -31.2719  -34.9332 C   0  0  0  0  0  0  0  0  0  0  0  0
  -22.1706  -24.2008  -36.5531 C   0  0  0  0  0  0  0  0  0  0  0  0
  -20.8465  -24.5798  -37.2226 C   0  0  0  0  0  0  0  0  0  0  0  0
  -19.7344  -24.9137  -36.2258 C   0  0  0  0  0  0  0  0  0  0  0  0
  -18.3572  -24.8482  -36.8902 C   0  0  0  0  0  0  0  0  0  0  0  0
  -17.2634  -25.3682  -35.9559 C   0  0  0  0  0  0  0  0  0  0  0  0
  -15.8869  -25.3028  -36.6198 C   0  0  0  0  0  0  0  0  0  0  0  0
  -14.7855  -25.7623  -35.6631 C   0  0  0  0  0  0  0  0  0  0  0  0
  -13.4039  -25.6488  -36.3096 C   0  0  0  0  0  0  0  0  0  0  0  0
  -12.3081  -26.1695  -35.3765 C   0  0  0  0  0  0  0  0  0  0  0  0
  -10.9189  -25.7609  -35.8717 C   0  0  0  0  0  0  0  0  0  0  0  0
   -9.7789  -26.5086  -35.1730 C   0  0  0  0  0  0  0  0  0  0  0  0
   -6.0882  -31.3677  -34.9352 C   0  0  0  0  0  0  0  0  0  0  0  0
   -9.6158  -27.9493  -35.6563 C   0  0  0  0  0  0  0  0  0  0  0  0
   -6.7214  -30.0706  -34.8754 N   0  0  0  0  0  0  0  0  0  0  0  0
   -8.3391  -28.4909  -35.2028 N   0  0  0  0  0  0  0  0  0  0  0  0
   -8.6872  -30.6527  -35.9651 O   0  0  0  0  0  0  0  0  0  0  0  0
  -24.5346  -25.7533  -34.5439 H   0  0  0  0  0  0  0  0  0  0  0  0
  -24.0007  -24.0683  -34.4188 H   0  0  0  0  0  0  0  0  0  0  0  0
  -24.8026  -24.6397  -35.8955 H   0  0  0  0  0  0  0  0  0  0  0  0
   -4.1835  -33.1962  -35.8596 H   0  0  0  0  0  0  0  0  0  0  0  0
   -2.8038  -32.5165  -34.9812 H   0  0  0  0  0  0  0  0  0  0  0  0
   -4.1518  -33.2307  -34.0851 H   0  0  0  0  0  0  0  0  0  0  0  0
  -22.0715  -25.5451  -34.8542 H   0  0  0  0  0  0  0  0  0  0  0  0
  -22.8695  -26.2289  -36.2729 H   0  0  0  0  0  0  0  0  0  0  0  0
   -4.2475  -30.7014  -35.8130 H   0  0  0  0  0  0  0  0  0  0  0  0
   -4.2260  -30.7219  -34.0482 H   0  0  0  0  0  0  0  0  0  0  0  0
  -22.8919  -23.9504  -37.3411 H   0  0  0  0  0  0  0  0  0  0  0  0
  -22.0326  -23.2933  -35.9526 H   0  0  0  0  0  0  0  0  0  0  0  0
  -20.5261  -23.7363  -37.8466 H   0  0  0  0  0  0  0  0  0  0  0  0
  -21.0060  -25.4292  -37.8981 H   0  0  0  0  0  0  0  0  0  0  0  0
  -19.8860  -25.9185  -35.8161 H   0  0  0  0  0  0  0  0  0  0  0  0
  -19.7700  -24.2100  -35.3854 H   0  0  0  0  0  0  0  0  0  0  0  0
  -18.3660  -25.4424  -37.8121 H   0  0  0  0  0  0  0  0  0  0  0  0
  -18.1348  -23.8126  -37.1748 H   0  0  0  0  0  0  0  0  0  0  0  0
  -17.2551  -24.7742  -35.0338 H   0  0  0  0  0  0  0  0  0  0  0  0
  -17.4852  -26.4040  -35.6712 H   0  0  0  0  0  0  0  0  0  0  0  0
  -15.8811  -25.9339  -37.5167 H   0  0  0  0  0  0  0  0  0  0  0  0
  -15.6852  -24.2752  -36.9461 H   0  0  0  0  0  0  0  0  0  0  0  0
  -14.9676  -26.8023  -35.3661 H   0  0  0  0  0  0  0  0  0  0  0  0
  -14.8150  -25.1553  -34.7501 H   0  0  0  0  0  0  0  0  0  0  0  0
  -13.3896  -26.2179  -37.2470 H   0  0  0  0  0  0  0  0  0  0  0  0
  -13.2020  -24.6011  -36.5639 H   0  0  0  0  0  0  0  0  0  0  0  0
  -12.3693  -27.2625  -35.3132 H   0  0  0  0  0  0  0  0  0  0  0  0
  -12.4793  -25.7746  -34.3689 H   0  0  0  0  0  0  0  0  0  0  0  0
  -10.8496  -25.9626  -36.9479 H   0  0  0  0  0  0  0  0  0  0  0  0
  -10.7827  -24.6800  -35.7440 H   0  0  0  0  0  0  0  0  0  0  0  0
   -9.9858  -26.5091  -34.0948 H   0  0  0  0  0  0  0  0  0  0  0  0
   -8.8402  -25.9575  -35.3128 H   0  0  0  0  0  0  0  0  0  0  0  0
   -6.4320  -31.8492  -35.8561 H   0  0  0  0  0  0  0  0  0  0  0  0
   -6.4504  -31.9570  -34.0869 H   0  0  0  0  0  0  0  0  0  0  0  0
   -9.6421  -27.9956  -36.7491 H   0  0  0  0  0  0  0  0  0  0  0  0
  -10.4309  -28.5726  -35.2733 H   0  0  0  0  0  0  0  0  0  0  0  0
   -6.2209  -29.3089  -34.4280 H   0  0  0  0  0  0  0  0  0  0  0  0
   -7.7269  -27.8756  -34.6901 H   0  0  0  0  0  0  0  0  0  0  0  0
  1 19  1  0  0  0  0
  1 20  1  0  0  0  0
  1 21  2  0  0  0  0
  2  4  1  0  0  0  0
  3  5  1  0  0  0  0
  4  6  1  0  0  0  0
  5 17  1  0  0  0  0
  6  7  1  0  0  0  0
  7  8  1  0  0  0  0
  8  9  1  0  0  0  0
  9 10  1  0  0  0  0
 10 11  1  0  0  0  0
 11 12  1  0  0  0  0
 12 13  1  0  0  0  0
 13 14  1  0  0  0  0
 14 15  1  0  0  0  0
 15 16  1  0  0  0  0
 16 18  1  0  0  0  0
 17 19  1  0  0  0  0
 18 20  1  0  0  0  0
  2 22  1  0  0  0  0
  2 23  1  0  0  0  0
  2 24  1  0  0  0  0
  3 25  1  0  0  0  0
  3 26  1  0  0  0  0
  3 27  1  0  0  0  0
  4 28  1  0  0  0  0
  4 29  1  0  0  0  0
  5 30  1  0  0  0  0
  5 31  1  0  0  0  0
  6 32  1  0  0  0  0
  6 33  1  0  0  0  0
  7 34  1  0  0  0  0
  7 35  1  0  0  0  0
  8 36  1  0  0  0  0
  8 37  1  0  0  0  0
  9 38  1  0  0  0  0
  9 39  1  0  0  0  0
 10 40  1  0  0  0  0
 10 41  1  0  0  0  0
 11 42  1  0  0  0  0
 11 43  1  0  0  0  0
 12 44  1  0  0  0  0
 12 45  1  0  0  0  0
 13 46  1  0  0  0  0
 13 47  1  0  0  0  0
 14 48  1  0  0  0  0
 14 49  1  0  0  0  0
 15 50  1  0  0  0  0
 15 51  1  0  0  0  0
 16 52  1  0  0  0  0
 16 53  1  0  0  0  0
 17 54  1  0  0  0  0
 17 55  1  0  0  0  0
 18 56  1  0  0  0  0
 18 57  1  0  0  0  0
 19 58  1  0  0  0  0
 20 59  1  0  0  0  0
M  END
> <Name>
IA_100.cdx

> <SourceTag>
IA_100

> <Gold.Version>
5.2

> <Gold.Id.Protein>
6HGV|6HGV_protein|mol2

> <Gold.Goldscore.Fitness>
70.8932

> <Gold.Goldscore.Internal.Vdw>
-7.3952

> <Gold.Goldscore.Internal.Torsion>
-3.7098

> <Gold.Goldscore.External.Vdw>
53.9984

> <Gold.Goldscore.Internal.HBond>
0.0000

> <Gold.Goldscore.External.HBond>
0.0000

> <Gold.Goldscore.Internal.Correction>
-7.7505

> <Gold.Goldscore.Internal.Vdw.Weighted>
-7.3952

> <Gold.Goldscore.Internal.Torsion.Weighted>
-3.7098

> <Gold.Goldscore.External.Vdw.Weighted>
74.2477

> <Gold.Goldscore.Internal.HBond.Weighted>
0.0000

> <Gold.Goldscore.External.HBond.Weighted>
0.0000

> <Gold.Goldscore.Internal.Correction.Weighted>
-7.7505

> <Gold.Protein.RotatedTorsions>
[ 3781 1176 1175 1172 ] final   92.86 input   60.00 | X-H torsion
[ 3847 1247 1246 1244 ] final  -20.33 input   60.00 | X-H torsion
[ 4507 1931 1930 1928 ] final   89.76 input   60.00 | X-H torsion
[ 3677 1070 1069 1066 ] final -107.97 input   60.00 | X-H torsion
[ 3525  925  924  922 ] final   39.34 input   59.99 | X-H torsion
[ 4531 1957 1955 1953 ] final  175.66 input   60.00 | X-H torsion

> <Gold.Protein.ActiveResidues>
 PHE267  PRO268  MET310  ASP335  TRP336  MET339  TYR343  THR360  PRO361  ILE363
 PRO371  SER374  ILE375  ASN378  PHE381  TYR383  GLN384  PHE387  LEU408  LEU417
 MET419  LEU428  TYR466  MET469  ASN472  ASP496  VAL498  LEU499  MET503  HIS524
 TRP525

> <Gold.Protein.RotatedAtoms>
   -3.1127  -29.7240  -30.8372 H   0  0  0  0  0  0  0  0  0  0  0  0  # atno 3525 bound_to 925
  -11.6216  -23.6940  -31.4384 H   0  0  0  0  0  0  0  0  0  0  0  0  # atno 3677 bound_to 1070
  -10.2127  -37.3024  -32.4492 H   0  0  0  0  0  0  0  0  0  0  0  0  # atno 3781 bound_to 1176
  -15.9223  -28.4651  -37.0682 H   0  0  0  0  0  0  0  0  0  0  0  0  # atno 3847 bound_to 1247
  -12.4624  -24.2604  -38.9938 H   0  0  0  0  0  0  0  0  0  0  0  0  # atno 4507 bound_to 1931
   -1.5502  -33.8124  -36.9601 H   0  0  0  0  0  0  0  0  0  0  0  0  # atno 4531 bound_to 1957
  -10.6235  -36.9951  -33.9935 LP  0  0  0  0  0  0  0  0  0  0  0  0  # atno 5205 bound_to 1176
   -9.2733  -36.3325  -33.3574 LP  0  0  0  0  0  0  0  0  0  0  0  0  # atno 5206 bound_to 1176
  -15.2407  -27.1929  -37.8198 LP  0  0  0  0  0  0  0  0  0  0  0  0  # atno 5215 bound_to 1247
  -14.3962  -28.5765  -37.6219 LP  0  0  0  0  0  0  0  0  0  0  0  0  # atno 5216 bound_to 1247
  -13.5389  -25.3785  -39.4828 LP  0  0  0  0  0  0  0  0  0  0  0  0  # atno 5217 bound_to 1931
  -13.1977  -24.0975  -40.4363 LP  0  0  0  0  0  0  0  0  0  0  0  0  # atno 5218 bound_to 1931
  -11.4236  -22.2494  -30.7160 LP  0  0  0  0  0  0  0  0  0  0  0  0  # atno 5224 bound_to 1070
  -12.8112  -23.0853  -30.5098 LP  0  0  0  0  0  0  0  0  0  0  0  0  # atno 5225 bound_to 1070

$$$$
IA_100.cdx|SeH_inactivess_minimized|sdf|2|dock9
  -GOLD-   4172118203D 1   1.00000     0.00000

 59 58  0  0  0  0  0  0  0  0  1 V2000
   -6.7183  -29.6541  -34.4923 C   0  0  0  0  0  0  0  0  0  0  0  0
  -22.9594  -23.3483  -37.6247 C   0  0  0  0  0  0  0  0  0  0  0  0
   -4.5750  -32.0758  -35.3433 C   0  0  0  0  0  0  0  0  0  0  0  0
  -21.5702  -23.3551  -38.2447 C   0  0  0  0  0  0  0  0  0  0  0  0
   -4.0052  -31.6143  -34.0095 C   0  0  0  0  0  0  0  0  0  0  0  0
  -20.5729  -24.1143  -37.3688 C   0  0  0  0  0  0  0  0  0  0  0  0
  -19.1576  -24.1546  -37.9521 C   0  0  0  0  0  0  0  0  0  0  0  0
  -18.1289  -24.7837  -37.0098 C   0  0  0  0  0  0  0  0  0  0  0  0
  -16.7084  -24.6300  -37.5587 C   0  0  0  0  0  0  0  0  0  0  0  0
  -15.6779  -25.2579  -36.6188 C   0  0  0  0  0  0  0  0  0  0  0  0
  -14.2582  -25.1043  -37.1671 C   0  0  0  0  0  0  0  0  0  0  0  0
  -13.2279  -25.7323  -36.2271 C   0  0  0  0  0  0  0  0  0  0  0  0
  -11.8165  -25.2271  -36.5312 C   0  0  0  0  0  0  0  0  0  0  0  0
  -10.8100  -25.7281  -35.4927 C   0  0  0  0  0  0  0  0  0  0  0  0
  -10.4905  -27.2101  -35.7013 C   0  0  0  0  0  0  0  0  0  0  0  0
   -9.3773  -27.7281  -34.7851 C   0  0  0  0  0  0  0  0  0  0  0  0
   -4.4362  -30.1994  -33.6428 C   0  0  0  0  0  0  0  0  0  0  0  0
   -9.1357  -29.2314  -34.9185 C   0  0  0  0  0  0  0  0  0  0  0  0
   -5.8669  -30.0852  -33.4785 N   0  0  0  0  0  0  0  0  0  0  0  0
   -8.0324  -29.6423  -34.0566 N   0  0  0  0  0  0  0  0  0  0  0  0
   -6.3493  -29.3297  -35.6203 O   0  0  0  0  0  0  0  0  0  0  0  0
  -23.3226  -24.3729  -37.4977 H   0  0  0  0  0  0  0  0  0  0  0  0
  -22.9474  -22.8676  -36.6413 H   0  0  0  0  0  0  0  0  0  0  0  0
  -23.6709  -22.8125  -38.2611 H   0  0  0  0  0  0  0  0  0  0  0  0
   -4.1709  -33.0534  -35.6251 H   0  0  0  0  0  0  0  0  0  0  0  0
   -5.6640  -32.1665  -35.2764 H   0  0  0  0  0  0  0  0  0  0  0  0
   -4.3461  -31.3644  -36.1427 H   0  0  0  0  0  0  0  0  0  0  0  0
  -21.6330  -23.8144  -39.2369 H   0  0  0  0  0  0  0  0  0  0  0  0
  -21.2337  -22.3213  -38.3834 H   0  0  0  0  0  0  0  0  0  0  0  0
   -2.9109  -31.6476  -34.0658 H   0  0  0  0  0  0  0  0  0  0  0  0
   -4.3112  -32.3163  -33.2248 H   0  0  0  0  0  0  0  0  0  0  0  0
  -20.5226  -23.6326  -36.3843 H   0  0  0  0  0  0  0  0  0  0  0  0
  -20.9309  -25.1374  -37.2008 H   0  0  0  0  0  0  0  0  0  0  0  0
  -18.8527  -23.1254  -38.1788 H   0  0  0  0  0  0  0  0  0  0  0  0
  -19.1680  -24.6977  -38.9051 H   0  0  0  0  0  0  0  0  0  0  0  0
  -18.3459  -25.8489  -36.8735 H   0  0  0  0  0  0  0  0  0  0  0  0
  -18.1944  -24.3086  -36.0236 H   0  0  0  0  0  0  0  0  0  0  0  0
  -16.6431  -25.1045  -38.5453 H   0  0  0  0  0  0  0  0  0  0  0  0
  -16.4799  -23.5660  -37.6955 H   0  0  0  0  0  0  0  0  0  0  0  0
  -15.7438  -24.7836  -35.6319 H   0  0  0  0  0  0  0  0  0  0  0  0
  -15.9058  -26.3221  -36.4818 H   0  0  0  0  0  0  0  0  0  0  0  0
  -14.1921  -25.5785  -38.1538 H   0  0  0  0  0  0  0  0  0  0  0  0
  -14.0306  -24.0402  -37.3037 H   0  0  0  0  0  0  0  0  0  0  0  0
  -13.2567  -26.8241  -36.3275 H   0  0  0  0  0  0  0  0  0  0  0  0
  -13.4867  -25.4962  -35.1878 H   0  0  0  0  0  0  0  0  0  0  0  0
  -11.5133  -25.5647  -37.5297 H   0  0  0  0  0  0  0  0  0  0  0  0
  -11.8138  -24.1304  -36.5456 H   0  0  0  0  0  0  0  0  0  0  0  0
  -11.2170  -25.5778  -34.4855 H   0  0  0  0  0  0  0  0  0  0  0  0
   -9.8938  -25.1319  -35.5662 H   0  0  0  0  0  0  0  0  0  0  0  0
  -11.3942  -27.8013  -35.5074 H   0  0  0  0  0  0  0  0  0  0  0  0
  -10.2168  -27.3867  -36.7487 H   0  0  0  0  0  0  0  0  0  0  0  0
   -9.6570  -27.4964  -33.7490 H   0  0  0  0  0  0  0  0  0  0  0  0
   -8.4494  -27.1794  -34.9906 H   0  0  0  0  0  0  0  0  0  0  0  0
   -3.9806  -29.9034  -32.6926 H   0  0  0  0  0  0  0  0  0  0  0  0
   -4.1280  -29.4793  -34.4074 H   0  0  0  0  0  0  0  0  0  0  0  0
   -8.8834  -29.4921  -35.9506 H   0  0  0  0  0  0  0  0  0  0  0  0
  -10.0382  -29.7867  -34.6420 H   0  0  0  0  0  0  0  0  0  0  0  0
   -6.2712  -30.3311  -32.5802 H   0  0  0  0  0  0  0  0  0  0  0  0
   -8.2602  -29.9674  -33.1299 H   0  0  0  0  0  0  0  0  0  0  0  0
  1 19  1  0  0  0  0
  1 20  1  0  0  0  0
  1 21  2  0  0  0  0
  2  4  1  0  0  0  0
  3  5  1  0  0  0  0
  4  6  1  0  0  0  0
  5 17  1  0  0  0  0
  6  7  1  0  0  0  0
  7  8  1  0  0  0  0
  8  9  1  0  0  0  0
  9 10  1  0  0  0  0
 10 11  1  0  0  0  0
 11 12  1  0  0  0  0
 12 13  1  0  0  0  0
 13 14  1  0  0  0  0
 14 15  1  0  0  0  0
 15 16  1  0  0  0  0
 16 18  1  0  0  0  0
 17 19  1  0  0  0  0
 18 20  1  0  0  0  0
  2 22  1  0  0  0  0
  2 23  1  0  0  0  0
  2 24  1  0  0  0  0
  3 25  1  0  0  0  0
  3 26  1  0  0  0  0
  3 27  1  0  0  0  0
  4 28  1  0  0  0  0
  4 29  1  0  0  0  0
  5 30  1  0  0  0  0
  5 31  1  0  0  0  0
  6 32  1  0  0  0  0
  6 33  1  0  0  0  0
  7 34  1  0  0  0  0
  7 35  1  0  0  0  0
  8 36  1  0  0  0  0
  8 37  1  0  0  0  0
  9 38  1  0  0  0  0
  9 39  1  0  0  0  0
 10 40  1  0  0  0  0
 10 41  1  0  0  0  0
 11 42  1  0  0  0  0
 11 43  1  0  0  0  0
 12 44  1  0  0  0  0
 12 45  1  0  0  0  0
 13 46  1  0  0  0  0
 13 47  1  0  0  0  0
 14 48  1  0  0  0  0
 14 49  1  0  0  0  0
 15 50  1  0  0  0  0
 15 51  1  0  0  0  0
 16 52  1  0  0  0  0
 16 53  1  0  0  0  0
 17 54  1  0  0  0  0
 17 55  1  0  0  0  0
 18 56  1  0  0  0  0
 18 57  1  0  0  0  0
 19 58  1  0  0  0  0
 20 59  1  0  0  0  0
M  END
> <Name>
IA_100.cdx

> <SourceTag>
IA_100

> <Gold.Version>
5.2

> <Gold.Id.Protein>
6HGV|6HGV_protein|mol2

> <Gold.Goldscore.Fitness>
69.9972

> <Gold.Goldscore.Internal.Vdw>
-6.3240

> <Gold.Goldscore.Internal.Torsion>
-2.7725

> <Gold.Goldscore.External.Vdw>
51.9188

> <Gold.Goldscore.Internal.HBond>
0.0000

> <Gold.Goldscore.External.HBond>
0.1277

> <Gold.Goldscore.Internal.Correction>
-7.5775

> <Gold.Goldscore.Hbonds>
donor molecule, donor type, donor heavy atom, donor atom, acceptor molecule, acceptor atom, score
      P1  H  1994  4571       L1    21  0.06

> <Gold.Goldscore.Internal.Vdw.Weighted>
-6.3240

> <Gold.Goldscore.Internal.Torsion.Weighted>
-2.7725

> <Gold.Goldscore.External.Vdw.Weighted>
71.3884

> <Gold.Goldscore.Internal.HBond.Weighted>
0.0000

> <Gold.Goldscore.External.HBond.Weighted>
0.1277

> <Gold.Goldscore.Internal.Correction.Weighted>
-7.5775

> <Gold.Protein.RotatedTorsions>
[ 3781 1176 1175 1172 ] final -129.00 input   60.00 | X-H torsion
[ 3847 1247 1246 1244 ] final  104.96 input   60.00 | X-H torsion
[ 4507 1931 1930 1928 ] final  131.01 input   60.00 | X-H torsion
[ 3677 1070 1069 1066 ] final -102.44 input   60.00 | X-H torsion
[ 3525  925  924  922 ] final  -30.39 input   59.99 | X-H torsion
[ 4531 1957 1955 1953 ] final  -68.97 input   60.00 | X-H torsion

> <Gold.Protein.ActiveResidues>
 PHE267  PRO268  MET310  ASP335  TRP336  MET339  TYR343  THR360  PRO361  ILE363
 PRO371  SER374  ILE375  ASN378  PHE381  TYR383  GLN384  PHE387  LEU408  LEU417
 MET419  LEU428  TYR466  MET469  ASN472  ASP496  VAL498  LEU499  MET503  HIS524
 TRP525

> <Gold.Protein.RotatedAtoms>
   -3.7663  -29.5142  -30.0161 H   0  0  0  0  0  0  0  0  0  0  0  0  # atno 3525 bound_to 925
  -11.6996  -23.7370  -31.4245 H   0  0  0  0  0  0  0  0  0  0  0  0  # atno 3677 bound_to 1070
   -9.3880  -36.3101  -33.6298 H   0  0  0  0  0  0  0  0  0  0  0  0  # atno 3781 bound_to 1176
  -14.3697  -28.5044  -37.6626 H   0  0  0  0  0  0  0  0  0  0  0  0  # atno 3847 bound_to 1247
  -12.4827  -23.8552  -39.5137 H   0  0  0  0  0  0  0  0  0  0  0  0  # atno 4507 bound_to 1931
   -1.8420  -32.2592  -36.8778 H   0  0  0  0  0  0  0  0  0  0  0  0  # atno 4531 bound_to 1957
   -9.9636  -37.1632  -32.3692 LP  0  0  0  0  0  0  0  0  0  0  0  0  # atno 5205 bound_to 1176
  -10.7637  -37.1638  -33.7927 LP  0  0  0  0  0  0  0  0  0  0  0  0  # atno 5206 bound_to 1176
  -15.8786  -28.5390  -37.0544 LP  0  0  0  0  0  0  0  0  0  0  0  0  # atno 5215 bound_to 1247
  -15.3219  -27.1908  -37.7887 LP  0  0  0  0  0  0  0  0  0  0  0  0  # atno 5216 bound_to 1247
  -13.1407  -25.2405  -38.9695 LP  0  0  0  0  0  0  0  0  0  0  0  0  # atno 5217 bound_to 1931
  -13.5756  -24.6435  -40.4259 LP  0  0  0  0  0  0  0  0  0  0  0  0  # atno 5218 bound_to 1931
  -11.3599  -22.2869  -30.7687 LP  0  0  0  0  0  0  0  0  0  0  0  0  # atno 5224 bound_to 1070
  -12.7963  -23.0045  -30.4711 LP  0  0  0  0  0  0  0  0  0  0  0  0  # atno 5225 bound_to 1070

$$$$
IA_100.cdx|SeH_inactivess_minimized|sdf|2|dock8
  -GOLD-   4172118203D 1   1.00000     0.00000

 59 58  0  0  0  0  0  0  0  0  1 V2000
   -7.3397  -29.4242  -35.3551 C   0  0  0  0  0  0  0  0  0  0  0  0
  -22.5063  -25.6879  -35.1626 C   0  0  0  0  0  0  0  0  0  0  0  0
   -3.7653  -32.4623  -34.3636 C   0  0  0  0  0  0  0  0  0  0  0  0
  -21.9006  -24.6608  -36.1072 C   0  0  0  0  0  0  0  0  0  0  0  0
   -4.6382  -31.2447  -34.0948 C   0  0  0  0  0  0  0  0  0  0  0  0
  -20.4186  -24.9410  -36.3589 C   0  0  0  0  0  0  0  0  0  0  0  0
  -19.7604  -23.9332  -37.3055 C   0  0  0  0  0  0  0  0  0  0  0  0
  -18.2311  -23.9817  -37.2781 C   0  0  0  0  0  0  0  0  0  0  0  0
  -17.7033  -25.2212  -38.0043 C   0  0  0  0  0  0  0  0  0  0  0  0
  -16.1774  -25.1975  -38.1082 C   0  0  0  0  0  0  0  0  0  0  0  0
  -15.5230  -25.5004  -36.7592 C   0  0  0  0  0  0  0  0  0  0  0  0
  -13.9987  -25.5442  -36.8778 C   0  0  0  0  0  0  0  0  0  0  0  0
  -13.3441  -25.8470  -35.5289 C   0  0  0  0  0  0  0  0  0  0  0  0
  -11.8384  -26.0761  -35.6797 C   0  0  0  0  0  0  0  0  0  0  0  0
  -11.1887  -26.3929  -34.3307 C   0  0  0  0  0  0  0  0  0  0  0  0
   -9.6783  -26.6317  -34.4231 C   0  0  0  0  0  0  0  0  0  0  0  0
   -5.1261  -30.5757  -35.3741 C   0  0  0  0  0  0  0  0  0  0  0  0
   -9.3144  -27.9182  -35.1638 C   0  0  0  0  0  0  0  0  0  0  0  0
   -5.9692  -29.4327  -35.1104 N   0  0  0  0  0  0  0  0  0  0  0  0
   -7.8915  -28.2022  -35.0099 N   0  0  0  0  0  0  0  0  0  0  0  0
   -7.9707  -30.3751  -35.8148 O   0  0  0  0  0  0  0  0  0  0  0  0
  -21.9214  -25.7448  -34.2393 H   0  0  0  0  0  0  0  0  0  0  0  0
  -23.5339  -25.4192  -34.8979 H   0  0  0  0  0  0  0  0  0  0  0  0
  -22.5174  -26.6829  -35.6190 H   0  0  0  0  0  0  0  0  0  0  0  0
   -2.9336  -32.2094  -35.0290 H   0  0  0  0  0  0  0  0  0  0  0  0
   -3.3453  -32.8391  -33.4254 H   0  0  0  0  0  0  0  0  0  0  0  0
   -4.3405  -33.2722  -34.8228 H   0  0  0  0  0  0  0  0  0  0  0  0
  -22.4580  -24.6817  -37.0496 H   0  0  0  0  0  0  0  0  0  0  0  0
  -22.0233  -23.6604  -35.6766 H   0  0  0  0  0  0  0  0  0  0  0  0
   -4.0570  -30.5182  -33.5149 H   0  0  0  0  0  0  0  0  0  0  0  0
   -5.4931  -31.5437  -33.4767 H   0  0  0  0  0  0  0  0  0  0  0  0
  -19.8816  -24.9118  -35.4026 H   0  0  0  0  0  0  0  0  0  0  0  0
  -20.2958  -25.9553  -36.7582 H   0  0  0  0  0  0  0  0  0  0  0  0
  -20.0917  -22.9278  -37.0171 H   0  0  0  0  0  0  0  0  0  0  0  0
  -20.1183  -24.1018  -38.3286 H   0  0  0  0  0  0  0  0  0  0  0  0
  -17.8740  -23.9952  -36.2424 H   0  0  0  0  0  0  0  0  0  0  0  0
  -17.8259  -23.0791  -37.7511 H   0  0  0  0  0  0  0  0  0  0  0  0
  -18.0211  -26.1237  -37.4680 H   0  0  0  0  0  0  0  0  0  0  0  0
  -18.1387  -25.2720  -39.0097 H   0  0  0  0  0  0  0  0  0  0  0  0
  -15.8482  -25.9354  -38.8501 H   0  0  0  0  0  0  0  0  0  0  0  0
  -15.8486  -24.2132  -38.4634 H   0  0  0  0  0  0  0  0  0  0  0  0
  -15.8127  -24.7342  -36.0300 H   0  0  0  0  0  0  0  0  0  0  0  0
  -15.8900  -26.4622  -36.3808 H   0  0  0  0  0  0  0  0  0  0  0  0
  -13.6320  -24.5822  -37.2561 H   0  0  0  0  0  0  0  0  0  0  0  0
  -13.7088  -26.3102  -37.6071 H   0  0  0  0  0  0  0  0  0  0  0  0
  -13.5219  -25.0129  -34.8394 H   0  0  0  0  0  0  0  0  0  0  0  0
  -13.8082  -26.7370  -35.0867 H   0  0  0  0  0  0  0  0  0  0  0  0
  -11.3729  -25.1819  -36.1111 H   0  0  0  0  0  0  0  0  0  0  0  0
  -11.6708  -26.9012  -36.3807 H   0  0  0  0  0  0  0  0  0  0  0  0
  -11.3597  -25.5530  -33.6457 H   0  0  0  0  0  0  0  0  0  0  0  0
  -11.6730  -27.2690  -33.8824 H   0  0  0  0  0  0  0  0  0  0  0  0
   -9.2800  -26.6768  -33.4010 H   0  0  0  0  0  0  0  0  0  0  0  0
   -9.2010  -25.7713  -34.9090 H   0  0  0  0  0  0  0  0  0  0  0  0
   -4.2727  -30.2159  -35.9576 H   0  0  0  0  0  0  0  0  0  0  0  0
   -5.6938  -31.2747  -35.9964 H   0  0  0  0  0  0  0  0  0  0  0  0
   -9.5346  -27.8249  -36.2314 H   0  0  0  0  0  0  0  0  0  0  0  0
   -9.8966  -28.7591  -34.7722 H   0  0  0  0  0  0  0  0  0  0  0  0
   -5.5415  -28.5950  -34.7281 H   0  0  0  0  0  0  0  0  0  0  0  0
   -7.3150  -27.4868  -34.5951 H   0  0  0  0  0  0  0  0  0  0  0  0
  1 19  1  0  0  0  0
  1 20  1  0  0  0  0
  1 21  2  0  0  0  0
  2  4  1  0  0  0  0
  3  5  1  0  0  0  0
  4  6  1  0  0  0  0
  5 17  1  0  0  0  0
  6  7  1  0  0  0  0
  7  8  1  0  0  0  0
  8  9  1  0  0  0  0
  9 10  1  0  0  0  0
 10 11  1  0  0  0  0
 11 12  1  0  0  0  0
 12 13  1  0  0  0  0
 13 14  1  0  0  0  0
 14 15  1  0  0  0  0
 15 16  1  0  0  0  0
 16 18  1  0  0  0  0
 17 19  1  0  0  0  0
 18 20  1  0  0  0  0
  2 22  1  0  0  0  0
  2 23  1  0  0  0  0
  2 24  1  0  0  0  0
  3 25  1  0  0  0  0
  3 26  1  0  0  0  0
  3 27  1  0  0  0  0
  4 28  1  0  0  0  0
  4 29  1  0  0  0  0
  5 30  1  0  0  0  0
  5 31  1  0  0  0  0
  6 32  1  0  0  0  0
  6 33  1  0  0  0  0
  7 34  1  0  0  0  0
  7 35  1  0  0  0  0
  8 36  1  0  0  0  0
  8 37  1  0  0  0  0
  9 38  1  0  0  0  0
  9 39  1  0  0  0  0
 10 40  1  0  0  0  0
 10 41  1  0  0  0  0
 11 42  1  0  0  0  0
 11 43  1  0  0  0  0
 12 44  1  0  0  0  0
 12 45  1  0  0  0  0
 13 46  1  0  0  0  0
 13 47  1  0  0  0  0
 14 48  1  0  0  0  0
 14 49  1  0  0  0  0
 15 50  1  0  0  0  0
 15 51  1  0  0  0  0
 16 52  1  0  0  0  0
 16 53  1  0  0  0  0
 17 54  1  0  0  0  0
 17 55  1  0  0  0  0
 18 56  1  0  0  0  0
 18 57  1  0  0  0  0
 19 58  1  0  0  0  0
 20 59  1  0  0  0  0
M  END
> <Name>
IA_100.cdx

> <SourceTag>
IA_100

> <Gold.Version>
5.2

> <Gold.Id.Protein>
6HGV|6HGV_protein|mol2

> <Gold.Goldscore.Fitness>
69.2186

> <Gold.Goldscore.Internal.Vdw>
-8.3829

> <Gold.Goldscore.Internal.Torsion>
-3.0559

> <Gold.Goldscore.External.Vdw>
53.0232

> <Gold.Goldscore.Internal.HBond>
0.0000

> <Gold.Goldscore.External.HBond>
0.0000

> <Gold.Goldscore.Internal.Correction>
-7.7505

> <Gold.Goldscore.Internal.Vdw.Weighted>
-8.3829

> <Gold.Goldscore.Internal.Torsion.Weighted>
-3.0559

> <Gold.Goldscore.External.Vdw.Weighted>
72.9069

> <Gold.Goldscore.Internal.HBond.Weighted>
0.0000

> <Gold.Goldscore.External.HBond.Weighted>
0.0000

> <Gold.Goldscore.Internal.Correction.Weighted>
-7.7505

> <Gold.Protein.RotatedTorsions>
[ 3781 1176 1175 1172 ] final   78.67 input   60.00 | X-H torsion
[ 3847 1247 1246 1244 ] final   43.24 input   60.00 | X-H torsion
[ 4507 1931 1930 1928 ] final  -93.25 input   60.00 | X-H torsion
[ 3677 1070 1069 1066 ] final -118.41 input   60.00 | X-H torsion
[ 3525  925  924  922 ] final   37.22 input   59.99 | X-H torsion
[ 4531 1957 1955 1953 ] final  116.47 input   60.00 | X-H torsion

> <Gold.Protein.ActiveResidues>
 PHE267  PRO268  MET310  ASP335  TRP336  MET339  TYR343  THR360  PRO361  ILE363
 PRO371  SER374  ILE375  ASN378  PHE381  TYR383  GLN384  PHE387  LEU408  LEU417
 MET419  LEU428  TYR466  MET469  ASN472  ASP496  VAL498  LEU499  MET503  HIS524
 TRP525

> <Gold.Protein.RotatedAtoms>
   -3.1434  -29.7115  -30.8274 H   0  0  0  0  0  0  0  0  0  0  0  0  # atno 3525 bound_to 925
  -11.4828  -23.5959  -31.4507 H   0  0  0  0  0  0  0  0  0  0  0  0  # atno 3677 bound_to 1070
  -10.3970  -37.3826  -32.5634 H   0  0  0  0  0  0  0  0  0  0  0  0  # atno 3781 bound_to 1176
  -15.0817  -28.9615  -37.2083 H   0  0  0  0  0  0  0  0  0  0  0  0  # atno 3847 bound_to 1247
  -13.6540  -24.8584  -40.3075 H   0  0  0  0  0  0  0  0  0  0  0  0  # atno 4507 bound_to 1931
   -2.4336  -34.0318  -36.7960 H   0  0  0  0  0  0  0  0  0  0  0  0  # atno 4531 bound_to 1957
  -10.4724  -36.8541  -34.1006 LP  0  0  0  0  0  0  0  0  0  0  0  0  # atno 5205 bound_to 1176
   -9.2388  -36.3928  -33.1352 LP  0  0  0  0  0  0  0  0  0  0  0  0  # atno 5206 bound_to 1176
  -16.0026  -27.6279  -37.3543 LP  0  0  0  0  0  0  0  0  0  0  0  0  # atno 5215 bound_to 1247
  -14.4808  -27.6416  -37.9463 LP  0  0  0  0  0  0  0  0  0  0  0  0  # atno 5216 bound_to 1247
  -12.5704  -23.7827  -39.7447 LP  0  0  0  0  0  0  0  0  0  0  0  0  # atno 5217 bound_to 1931
  -12.9662  -25.0911  -38.8513 LP  0  0  0  0  0  0  0  0  0  0  0  0  # atno 5218 bound_to 1931
  -11.5570  -22.1979  -30.6211 LP  0  0  0  0  0  0  0  0  0  0  0  0  # atno 5224 bound_to 1070
  -12.8175  -23.2356  -30.5923 LP  0  0  0  0  0  0  0  0  0  0  0  0  # atno 5225 bound_to 1070

$$$$
IA_100.cdx|SeH_inactivess_minimized|sdf|2|dock5
  -GOLD-   4172118193D 1   1.00000     0.00000

 59 58  0  0  0  0  0  0  0  0  1 V2000
   -7.9179  -30.0811  -35.4409 C   0  0  0  0  0  0  0  0  0  0  0  0
  -23.7237  -22.8332  -38.5374 C   0  0  0  0  0  0  0  0  0  0  0  0
   -3.8038  -31.7548  -34.2497 C   0  0  0  0  0  0  0  0  0  0  0  0
  -22.2925  -23.0018  -39.0245 C   0  0  0  0  0  0  0  0  0  0  0  0
   -4.7206  -31.8421  -35.4616 C   0  0  0  0  0  0  0  0  0  0  0  0
  -21.4406  -23.7536  -38.0012 C   0  0  0  0  0  0  0  0  0  0  0  0
  -19.9597  -23.8339  -38.3829 C   0  0  0  0  0  0  0  0  0  0  0  0
  -19.0920  -24.5054  -37.3161 C   0  0  0  0  0  0  0  0  0  0  0  0
  -17.6060  -24.4097  -37.6702 C   0  0  0  0  0  0  0  0  0  0  0  0
  -16.7492  -25.2237  -36.6992 C   0  0  0  0  0  0  0  0  0  0  0  0
  -15.2624  -25.1119  -37.0407 C   0  0  0  0  0  0  0  0  0  0  0  0
  -14.3923  -25.7361  -35.9486 C   0  0  0  0  0  0  0  0  0  0  0  0
  -12.9040  -25.5520  -36.2499 C   0  0  0  0  0  0  0  0  0  0  0  0
  -12.0348  -26.3239  -35.2543 C   0  0  0  0  0  0  0  0  0  0  0  0
  -10.5882  -25.8251  -35.2794 C   0  0  0  0  0  0  0  0  0  0  0  0
   -9.5921  -26.8144  -34.6662 C   0  0  0  0  0  0  0  0  0  0  0  0
   -6.1969  -31.8524  -35.0838 C   0  0  0  0  0  0  0  0  0  0  0  0
   -9.3646  -28.0554  -35.5288 C   0  0  0  0  0  0  0  0  0  0  0  0
   -6.7222  -30.5221  -34.8804 N   0  0  0  0  0  0  0  0  0  0  0  0
   -8.1741  -28.7694  -35.0795 N   0  0  0  0  0  0  0  0  0  0  0  0
   -8.6450  -30.7669  -36.1584 O   0  0  0  0  0  0  0  0  0  0  0  0
  -24.3183  -22.3002  -39.2859 H   0  0  0  0  0  0  0  0  0  0  0  0
  -24.1942  -23.8053  -38.3590 H   0  0  0  0  0  0  0  0  0  0  0  0
  -23.7565  -22.2588  -37.6061 H   0  0  0  0  0  0  0  0  0  0  0  0
   -4.0040  -32.5700  -33.5471 H   0  0  0  0  0  0  0  0  0  0  0  0
   -2.7574  -31.8276  -34.5631 H   0  0  0  0  0  0  0  0  0  0  0  0
   -3.9303  -30.8049  -33.7212 H   0  0  0  0  0  0  0  0  0  0  0  0
  -22.3091  -23.5418  -39.9771 H   0  0  0  0  0  0  0  0  0  0  0  0
  -21.8595  -22.0134  -39.2163 H   0  0  0  0  0  0  0  0  0  0  0  0
   -4.4892  -32.7624  -36.0104 H   0  0  0  0  0  0  0  0  0  0  0  0
   -4.5100  -31.0018  -36.1339 H   0  0  0  0  0  0  0  0  0  0  0  0
  -21.5159  -23.2463  -37.0312 H   0  0  0  0  0  0  0  0  0  0  0  0
  -21.8392  -24.7656  -37.8590 H   0  0  0  0  0  0  0  0  0  0  0  0
  -19.5948  -22.8128  -38.5501 H   0  0  0  0  0  0  0  0  0  0  0  0
  -19.8540  -24.3666  -39.3358 H   0  0  0  0  0  0  0  0  0  0  0  0
  -19.3683  -25.5609  -37.2165 H   0  0  0  0  0  0  0  0  0  0  0  0
  -19.2689  -24.0288  -36.3443 H   0  0  0  0  0  0  0  0  0  0  0  0
  -17.4485  -24.7733  -38.6929 H   0  0  0  0  0  0  0  0  0  0  0  0
  -17.2892  -23.3599  -37.6475 H   0  0  0  0  0  0  0  0  0  0  0  0
  -16.9184  -24.8701  -35.6747 H   0  0  0  0  0  0  0  0  0  0  0  0
  -17.0558  -26.2765  -36.7325 H   0  0  0  0  0  0  0  0  0  0  0  0
  -15.0664  -25.6119  -37.9970 H   0  0  0  0  0  0  0  0  0  0  0  0
  -14.9931  -24.0562  -37.1667 H   0  0  0  0  0  0  0  0  0  0  0  0
  -14.6202  -26.8056  -35.8641 H   0  0  0  0  0  0  0  0  0  0  0  0
  -14.6310  -25.2771  -34.9816 H   0  0  0  0  0  0  0  0  0  0  0  0
  -12.6906  -25.8969  -37.2688 H   0  0  0  0  0  0  0  0  0  0  0  0
  -12.6499  -24.4858  -36.2092 H   0  0  0  0  0  0  0  0  0  0  0  0
  -12.0596  -27.3928  -35.4978 H   0  0  0  0  0  0  0  0  0  0  0  0
  -12.4548  -26.2089  -34.2490 H   0  0  0  0  0  0  0  0  0  0  0  0
  -10.2910  -25.6428  -36.3197 H   0  0  0  0  0  0  0  0  0  0  0  0
  -10.5187  -24.8625  -34.7582 H   0  0  0  0  0  0  0  0  0  0  0  0
   -9.9796  -27.1205  -33.6857 H   0  0  0  0  0  0  0  0  0  0  0  0
   -8.6374  -26.3054  -34.4822 H   0  0  0  0  0  0  0  0  0  0  0  0
   -6.7855  -32.3095  -35.8855 H   0  0  0  0  0  0  0  0  0  0  0  0
   -6.3684  -32.4244  -34.1665 H   0  0  0  0  0  0  0  0  0  0  0  0
   -9.2251  -27.7768  -36.5776 H   0  0  0  0  0  0  0  0  0  0  0  0
  -10.2313  -28.7223  -35.4702 H   0  0  0  0  0  0  0  0  0  0  0  0
   -6.1938  -29.8775  -34.3007 H   0  0  0  0  0  0  0  0  0  0  0  0
   -7.5516  -28.2884  -34.4491 H   0  0  0  0  0  0  0  0  0  0  0  0
  1 19  1  0  0  0  0
  1 20  1  0  0  0  0
  1 21  2  0  0  0  0
  2  4  1  0  0  0  0
  3  5  1  0  0  0  0
  4  6  1  0  0  0  0
  5 17  1  0  0  0  0
  6  7  1  0  0  0  0
  7  8  1  0  0  0  0
  8  9  1  0  0  0  0
  9 10  1  0  0  0  0
 10 11  1  0  0  0  0
 11 12  1  0  0  0  0
 12 13  1  0  0  0  0
 13 14  1  0  0  0  0
 14 15  1  0  0  0  0
 15 16  1  0  0  0  0
 16 18  1  0  0  0  0
 17 19  1  0  0  0  0
 18 20  1  0  0  0  0
  2 22  1  0  0  0  0
  2 23  1  0  0  0  0
  2 24  1  0  0  0  0
  3 25  1  0  0  0  0
  3 26  1  0  0  0  0
  3 27  1  0  0  0  0
  4 28  1  0  0  0  0
  4 29  1  0  0  0  0
  5 30  1  0  0  0  0
  5 31  1  0  0  0  0
  6 32  1  0  0  0  0
  6 33  1  0  0  0  0
  7 34  1  0  0  0  0
  7 35  1  0  0  0  0
  8 36  1  0  0  0  0
  8 37  1  0  0  0  0
  9 38  1  0  0  0  0
  9 39  1  0  0  0  0
 10 40  1  0  0  0  0
 10 41  1  0  0  0  0
 11 42  1  0  0  0  0
 11 43  1  0  0  0  0
 12 44  1  0  0  0  0
 12 45  1  0  0  0  0
 13 46  1  0  0  0  0
 13 47  1  0  0  0  0
 14 48  1  0  0  0  0
 14 49  1  0  0  0  0
 15 50  1  0  0  0  0
 15 51  1  0  0  0  0
 16 52  1  0  0  0  0
 16 53  1  0  0  0  0
 17 54  1  0  0  0  0
 17 55  1  0  0  0  0
 18 56  1  0  0  0  0
 18 57  1  0  0  0  0
 19 58  1  0  0  0  0
 20 59  1  0  0  0  0
M  END
> <Name>
IA_100.cdx

> <SourceTag>
IA_100

> <Gold.Version>
5.2

> <Gold.Id.Protein>
6HGV|6HGV_protein|mol2

> <Gold.Goldscore.Fitness>
68.4707

> <Gold.Goldscore.Internal.Vdw>
-8.5294

> <Gold.Goldscore.Internal.Torsion>
-4.6534

> <Gold.Goldscore.External.Vdw>
53.7477

> <Gold.Goldscore.Internal.HBond>
0.0000

> <Gold.Goldscore.External.HBond>
0.0000

> <Gold.Goldscore.Internal.Correction>
-7.7505

> <Gold.Goldscore.Internal.Vdw.Weighted>
-8.5294

> <Gold.Goldscore.Internal.Torsion.Weighted>
-4.6534

> <Gold.Goldscore.External.Vdw.Weighted>
73.9031

> <Gold.Goldscore.Internal.HBond.Weighted>
0.0000

> <Gold.Goldscore.External.HBond.Weighted>
0.0000

> <Gold.Goldscore.Internal.Correction.Weighted>
-7.7505

> <Gold.Protein.RotatedTorsions>
[ 3781 1176 1175 1172 ] final   74.72 input   60.00 | X-H torsion
[ 3847 1247 1246 1244 ] final  -12.02 input   60.00 | X-H torsion
[ 4507 1931 1930 1928 ] final  103.04 input   60.00 | X-H torsion
[ 3677 1070 1069 1066 ] final -101.78 input   60.00 | X-H torsion
[ 3525  925  924  922 ] final   56.14 input   59.99 | X-H torsion
[ 4531 1957 1955 1953 ] final  -73.68 input   60.00 | X-H torsion

> <Gold.Protein.ActiveResidues>
 PHE267  PRO268  MET310  ASP335  TRP336  MET339  TYR343  THR360  PRO361  ILE363
 PRO371  SER374  ILE375  ASN378  PHE381  TYR383  GLN384  PHE387  LEU408  LEU417
 MET419  LEU428  TYR466  MET469  ASN472  ASP496  VAL498  LEU499  MET503  HIS524
 TRP525

> <Gold.Protein.RotatedAtoms>
   -2.8627  -29.8299  -30.8709 H   0  0  0  0  0  0  0  0  0  0  0  0  # atno 3525 bound_to 925
  -11.7092  -23.7417  -31.4225 H   0  0  0  0  0  0  0  0  0  0  0  0  # atno 3677 bound_to 1070
  -10.4448  -37.3996  -32.6032 H   0  0  0  0  0  0  0  0  0  0  0  0  # atno 3781 bound_to 1176
  -15.8447  -28.5756  -37.0564 H   0  0  0  0  0  0  0  0  0  0  0  0  # atno 3847 bound_to 1247
  -12.4336  -24.1002  -39.1365 H   0  0  0  0  0  0  0  0  0  0  0  0  # atno 4507 bound_to 1931
   -1.7728  -32.2901  -36.8915 H   0  0  0  0  0  0  0  0  0  0  0  0  # atno 4531 bound_to 1957
  -10.4252  -36.8148  -34.1216 LP  0  0  0  0  0  0  0  0  0  0  0  0  # atno 5205 bound_to 1176
   -9.2379  -36.4150  -33.0742 LP  0  0  0  0  0  0  0  0  0  0  0  0  # atno 5206 bound_to 1176
  -15.3678  -27.1930  -37.7698 LP  0  0  0  0  0  0  0  0  0  0  0  0  # atno 5215 bound_to 1247
  -14.3473  -28.4650  -37.6838 LP  0  0  0  0  0  0  0  0  0  0  0  0  # atno 5216 bound_to 1247
  -13.4284  -25.3782  -39.2948 LP  0  0  0  0  0  0  0  0  0  0  0  0  # atno 5217 bound_to 1931
  -13.3373  -24.2591  -40.4805 LP  0  0  0  0  0  0  0  0  0  0  0  0  # atno 5218 bound_to 1931
  -11.3526  -22.2919  -30.7751 LP  0  0  0  0  0  0  0  0  0  0  0  0  # atno 5224 bound_to 1070
  -12.7940  -22.9948  -30.4667 LP  0  0  0  0  0  0  0  0  0  0  0  0  # atno 5225 bound_to 1070

$$$$
IA_100.cdx|SeH_inactivess_minimized|sdf|2|dock7
  -GOLD-   4172118203D 1   1.00000     0.00000

 59 58  0  0  0  0  0  0  0  0  1 V2000
   -7.5382  -29.3966  -35.2936 C   0  0  0  0  0  0  0  0  0  0  0  0
  -24.0685  -22.8219  -37.5485 C   0  0  0  0  0  0  0  0  0  0  0  0
   -3.7504  -32.4417  -34.5670 C   0  0  0  0  0  0  0  0  0  0  0  0
  -22.7813  -23.2617  -38.2296 C   0  0  0  0  0  0  0  0  0  0  0  0
   -4.6759  -31.3089  -34.1465 C   0  0  0  0  0  0  0  0  0  0  0  0
  -21.7611  -23.7764  -37.2135 C   0  0  0  0  0  0  0  0  0  0  0  0
  -20.3908  -24.0796  -37.8264 C   0  0  0  0  0  0  0  0  0  0  0  0
  -19.3799  -24.6262  -36.8160 C   0  0  0  0  0  0  0  0  0  0  0  0
  -17.9737  -24.6871  -37.4172 C   0  0  0  0  0  0  0  0  0  0  0  0
  -16.9760  -25.3069  -36.4373 C   0  0  0  0  0  0  0  0  0  0  0  0
  -15.5337  -25.0793  -36.8931 C   0  0  0  0  0  0  0  0  0  0  0  0
  -14.5379  -25.7405  -35.9388 C   0  0  0  0  0  0  0  0  0  0  0  0
  -13.0961  -25.5241  -36.4015 C   0  0  0  0  0  0  0  0  0  0  0  0
  -12.0952  -26.0264  -35.3583 C   0  0  0  0  0  0  0  0  0  0  0  0
  -10.6564  -25.7147  -35.7763 C   0  0  0  0  0  0  0  0  0  0  0  0
   -9.6054  -26.3210  -34.8410 C   0  0  0  0  0  0  0  0  0  0  0  0
   -5.3859  -30.6589  -35.3279 C   0  0  0  0  0  0  0  0  0  0  0  0
   -9.4553  -27.8336  -35.0009 C   0  0  0  0  0  0  0  0  0  0  0  0
   -6.2015  -29.5352  -34.9293 N   0  0  0  0  0  0  0  0  0  0  0  0
   -8.0692  -28.2286  -34.7734 N   0  0  0  0  0  0  0  0  0  0  0  0
   -8.1590  -30.2045  -35.9832 O   0  0  0  0  0  0  0  0  0  0  0  0
  -24.7565  -22.3897  -38.2817 H   0  0  0  0  0  0  0  0  0  0  0  0
  -24.5693  -23.6703  -37.0714 H   0  0  0  0  0  0  0  0  0  0  0  0
  -23.8690  -22.0651  -36.7830 H   0  0  0  0  0  0  0  0  0  0  0  0
   -4.2865  -33.1836  -35.1675 H   0  0  0  0  0  0  0  0  0  0  0  0
   -2.9257  -32.0497  -35.1709 H   0  0  0  0  0  0  0  0  0  0  0  0
   -3.3189  -32.9479  -33.6980 H   0  0  0  0  0  0  0  0  0  0  0  0
  -23.0213  -24.0432  -38.9583 H   0  0  0  0  0  0  0  0  0  0  0  0
  -22.3610  -22.4151  -38.7843 H   0  0  0  0  0  0  0  0  0  0  0  0
   -4.0833  -30.5469  -33.6268 H   0  0  0  0  0  0  0  0  0  0  0  0
   -5.4118  -31.6922  -33.4296 H   0  0  0  0  0  0  0  0  0  0  0  0
  -21.6246  -23.0210  -36.4296 H   0  0  0  0  0  0  0  0  0  0  0  0
  -22.1504  -24.6754  -36.7201 H   0  0  0  0  0  0  0  0  0  0  0  0
  -19.9978  -23.1511  -38.2591 H   0  0  0  0  0  0  0  0  0  0  0  0
  -20.5074  -24.7890  -38.6549 H   0  0  0  0  0  0  0  0  0  0  0  0
  -19.6750  -25.6314  -36.4951 H   0  0  0  0  0  0  0  0  0  0  0  0
  -19.3700  -23.9887  -35.9237 H   0  0  0  0  0  0  0  0  0  0  0  0
  -17.9953  -25.2767  -38.3418 H   0  0  0  0  0  0  0  0  0  0  0  0
  -17.6442  -23.6760  -37.6858 H   0  0  0  0  0  0  0  0  0  0  0  0
  -17.1197  -24.8703  -35.4414 H   0  0  0  0  0  0  0  0  0  0  0  0
  -17.1680  -26.3833  -36.3491 H   0  0  0  0  0  0  0  0  0  0  0  0
  -15.3992  -25.4849  -37.9032 H   0  0  0  0  0  0  0  0  0  0  0  0
  -15.3314  -24.0027  -36.9473 H   0  0  0  0  0  0  0  0  0  0  0  0
  -14.7464  -26.8156  -35.8777 H   0  0  0  0  0  0  0  0  0  0  0  0
  -14.6660  -25.3284  -34.9306 H   0  0  0  0  0  0  0  0  0  0  0  0
  -12.9327  -26.0491  -37.3505 H   0  0  0  0  0  0  0  0  0  0  0  0
  -12.9265  -24.4568  -36.5888 H   0  0  0  0  0  0  0  0  0  0  0  0
  -12.2140  -27.1087  -35.2276 H   0  0  0  0  0  0  0  0  0  0  0  0
  -12.3171  -25.5555  -34.3943 H   0  0  0  0  0  0  0  0  0  0  0  0
  -10.4837  -26.1102  -36.7851 H   0  0  0  0  0  0  0  0  0  0  0  0
  -10.5142  -24.6287  -35.8347 H   0  0  0  0  0  0  0  0  0  0  0  0
   -9.9002  -26.0931  -33.8083 H   0  0  0  0  0  0  0  0  0  0  0  0
   -8.6392  -25.8284  -35.0084 H   0  0  0  0  0  0  0  0  0  0  0  0
   -4.6504  -30.2817  -36.0455 H   0  0  0  0  0  0  0  0  0  0  0  0
   -6.0316  -31.3747  -35.8463 H   0  0  0  0  0  0  0  0  0  0  0  0
   -9.7425  -28.1460  -36.0093 H   0  0  0  0  0  0  0  0  0  0  0  0
  -10.1030  -28.3565  -34.2893 H   0  0  0  0  0  0  0  0  0  0  0  0
   -5.7797  -28.8113  -34.3558 H   0  0  0  0  0  0  0  0  0  0  0  0
   -7.5079  -27.6400  -34.1777 H   0  0  0  0  0  0  0  0  0  0  0  0
  1 19  1  0  0  0  0
  1 20  1  0  0  0  0
  1 21  2  0  0  0  0
  2  4  1  0  0  0  0
  3  5  1  0  0  0  0
  4  6  1  0  0  0  0
  5 17  1  0  0  0  0
  6  7  1  0  0  0  0
  7  8  1  0  0  0  0
  8  9  1  0  0  0  0
  9 10  1  0  0  0  0
 10 11  1  0  0  0  0
 11 12  1  0  0  0  0
 12 13  1  0  0  0  0
 13 14  1  0  0  0  0
 14 15  1  0  0  0  0
 15 16  1  0  0  0  0
 16 18  1  0  0  0  0
 17 19  1  0  0  0  0
 18 20  1  0  0  0  0
  2 22  1  0  0  0  0
  2 23  1  0  0  0  0
  2 24  1  0  0  0  0
  3 25  1  0  0  0  0
  3 26  1  0  0  0  0
  3 27  1  0  0  0  0
  4 28  1  0  0  0  0
  4 29  1  0  0  0  0
  5 30  1  0  0  0  0
  5 31  1  0  0  0  0
  6 32  1  0  0  0  0
  6 33  1  0  0  0  0
  7 34  1  0  0  0  0
  7 35  1  0  0  0  0
  8 36  1  0  0  0  0
  8 37  1  0  0  0  0
  9 38  1  0  0  0  0
  9 39  1  0  0  0  0
 10 40  1  0  0  0  0
 10 41  1  0  0  0  0
 11 42  1  0  0  0  0
 11 43  1  0  0  0  0
 12 44  1  0  0  0  0
 12 45  1  0  0  0  0
 13 46  1  0  0  0  0
 13 47  1  0  0  0  0
 14 48  1  0  0  0  0
 14 49  1  0  0  0  0
 15 50  1  0  0  0  0
 15 51  1  0  0  0  0
 16 52  1  0  0  0  0
 16 53  1  0  0  0  0
 17 54  1  0  0  0  0
 17 55  1  0  0  0  0
 18 56  1  0  0  0  0
 18 57  1  0  0  0  0
 19 58  1  0  0  0  0
 20 59  1  0  0  0  0
M  END
> <Name>
IA_100.cdx

> <SourceTag>
IA_100

> <Gold.Version>
5.2

> <Gold.Id.Protein>
6HGV|6HGV_protein|mol2

> <Gold.Goldscore.Fitness>
68.3426

> <Gold.Goldscore.Internal.Vdw>
-7.7822

> <Gold.Goldscore.Internal.Torsion>
-4.3057

> <Gold.Goldscore.External.Vdw>
52.8582

> <Gold.Goldscore.Internal.HBond>
0.0000

> <Gold.Goldscore.External.HBond>
0.0000

> <Gold.Goldscore.Internal.Correction>
-7.7505

> <Gold.Goldscore.Internal.Vdw.Weighted>
-7.7822

> <Gold.Goldscore.Internal.Torsion.Weighted>
-4.3057

> <Gold.Goldscore.External.Vdw.Weighted>
72.6800

> <Gold.Goldscore.Internal.HBond.Weighted>
0.0000

> <Gold.Goldscore.External.HBond.Weighted>
0.0000

> <Gold.Goldscore.Internal.Correction.Weighted>
-7.7505

> <Gold.Protein.RotatedTorsions>
[ 3781 1176 1175 1172 ] final -162.01 input   60.00 | X-H torsion
[ 3847 1247 1246 1244 ] final   50.82 input   60.00 | X-H torsion
[ 4507 1931 1930 1928 ] final  130.06 input   60.00 | X-H torsion
[ 3677 1070 1069 1066 ] final -107.41 input   60.00 | X-H torsion
[ 3525  925  924  922 ] final   50.35 input   59.99 | X-H torsion
[ 4531 1957 1955 1953 ] final  -92.60 input   60.00 | X-H torsion

> <Gold.Protein.ActiveResidues>
 PHE267  PRO268  MET310  ASP335  TRP336  MET339  TYR343  THR360  PRO361  ILE363
 PRO371  SER374  ILE375  ASN378  PHE381  TYR383  GLN384  PHE387  LEU408  LEU417
 MET419  LEU428  TYR466  MET469  ASN472  ASP496  VAL498  LEU499  MET503  HIS524
 TRP525

> <Gold.Protein.RotatedAtoms>
   -2.9495  -29.7923  -30.8683 H   0  0  0  0  0  0  0  0  0  0  0  0  # atno 3525 bound_to 925
  -11.6293  -23.6987  -31.4372 H   0  0  0  0  0  0  0  0  0  0  0  0  # atno 3677 bound_to 1070
   -9.2427  -36.4017  -33.1263 H   0  0  0  0  0  0  0  0  0  0  0  0  # atno 3781 bound_to 1176
  -14.9677  -28.9548  -37.2556 H   0  0  0  0  0  0  0  0  0  0  0  0  # atno 3847 bound_to 1247
  -12.4786  -23.8610  -39.4999 H   0  0  0  0  0  0  0  0  0  0  0  0  # atno 4507 bound_to 1931
   -1.5272  -32.4687  -36.9413 H   0  0  0  0  0  0  0  0  0  0  0  0  # atno 4531 bound_to 1957
  -10.4092  -37.3874  -32.5644 LP  0  0  0  0  0  0  0  0  0  0  0  0  # atno 5205 bound_to 1176
  -10.4644  -36.8473  -34.1045 LP  0  0  0  0  0  0  0  0  0  0  0  0  # atno 5206 bound_to 1176
  -16.0411  -27.7326  -37.2991 LP  0  0  0  0  0  0  0  0  0  0  0  0  # atno 5215 bound_to 1247
  -14.5572  -27.5435  -37.9539 LP  0  0  0  0  0  0  0  0  0  0  0  0  # atno 5216 bound_to 1247
  -13.1511  -25.2480  -38.9783 LP  0  0  0  0  0  0  0  0  0  0  0  0  # atno 5217 bound_to 1931
  -13.5692  -24.6302  -40.4310 LP  0  0  0  0  0  0  0  0  0  0  0  0  # atno 5218 bound_to 1931
  -11.4169  -22.2529  -30.7212 LP  0  0  0  0  0  0  0  0  0  0  0  0  # atno 5224 bound_to 1070
  -12.8100  -23.0771  -30.5057 LP  0  0  0  0  0  0  0  0  0  0  0  0  # atno 5225 bound_to 1070

$$$$
IA_100.cdx|SeH_inactivess_minimized|sdf|2|dock10
  -GOLD-   4172118213D 1   1.00000     0.00000

 59 58  0  0  0  0  0  0  0  0  1 V2000
   -8.1917  -30.5500  -35.4708 C   0  0  0  0  0  0  0  0  0  0  0  0
  -22.9843  -24.5756  -34.6960 C   0  0  0  0  0  0  0  0  0  0  0  0
   -9.0993  -34.4943  -34.9631 C   0  0  0  0  0  0  0  0  0  0  0  0
  -22.4394  -25.2245  -35.9594 C   0  0  0  0  0  0  0  0  0  0  0  0
   -7.8148  -33.7162  -34.7154 C   0  0  0  0  0  0  0  0  0  0  0  0
  -21.0060  -24.7740  -36.2434 C   0  0  0  0  0  0  0  0  0  0  0  0
  -20.4761  -25.2480  -37.5997 C   0  0  0  0  0  0  0  0  0  0  0  0
  -19.0673  -24.7397  -37.9139 C   0  0  0  0  0  0  0  0  0  0  0  0
  -18.0111  -25.5049  -37.1128 C   0  0  0  0  0  0  0  0  0  0  0  0
  -16.5971  -25.0558  -37.4850 C   0  0  0  0  0  0  0  0  0  0  0  0
  -15.5738  -25.5234  -36.4488 C   0  0  0  0  0  0  0  0  0  0  0  0
  -14.1438  -25.2422  -36.9130 C   0  0  0  0  0  0  0  0  0  0  0  0
  -13.1199  -25.7230  -35.8834 C   0  0  0  0  0  0  0  0  0  0  0  0
  -11.6929  -25.3726  -36.3118 C   0  0  0  0  0  0  0  0  0  0  0  0
  -10.6622  -26.1650  -35.5045 C   0  0  0  0  0  0  0  0  0  0  0  0
  -10.5023  -27.6138  -35.9760 C   0  0  0  0  0  0  0  0  0  0  0  0
   -7.3963  -32.8733  -35.9140 C   0  0  0  0  0  0  0  0  0  0  0  0
   -9.3040  -28.3247  -35.3479 C   0  0  0  0  0  0  0  0  0  0  0  0
   -8.2917  -31.7636  -36.1458 N   0  0  0  0  0  0  0  0  0  0  0  0
   -9.1763  -29.6725  -35.8921 N   0  0  0  0  0  0  0  0  0  0  0  0
   -7.3424  -30.2959  -34.6177 O   0  0  0  0  0  0  0  0  0  0  0  0
  -22.3197  -24.7767  -33.8499 H   0  0  0  0  0  0  0  0  0  0  0  0
  -23.0634  -23.4904  -34.8155 H   0  0  0  0  0  0  0  0  0  0  0  0
  -23.9760  -24.9680  -34.4492 H   0  0  0  0  0  0  0  0  0  0  0  0
   -9.9167  -33.8225  -35.2439 H   0  0  0  0  0  0  0  0  0  0  0  0
   -8.9546  -35.2103  -35.7784 H   0  0  0  0  0  0  0  0  0  0  0  0
   -9.4038  -35.0553  -34.0741 H   0  0  0  0  0  0  0  0  0  0  0  0
  -22.4804  -26.3122  -35.8388 H   0  0  0  0  0  0  0  0  0  0  0  0
  -23.0867  -24.9643  -36.8047 H   0  0  0  0  0  0  0  0  0  0  0  0
   -7.0130  -34.4277  -34.4857 H   0  0  0  0  0  0  0  0  0  0  0  0
   -7.9446  -33.0780  -33.8332 H   0  0  0  0  0  0  0  0  0  0  0  0
  -20.9654  -23.6777  -36.2254 H   0  0  0  0  0  0  0  0  0  0  0  0
  -20.3415  -25.1268  -35.4452 H   0  0  0  0  0  0  0  0  0  0  0  0
  -21.1652  -24.8953  -38.3772 H   0  0  0  0  0  0  0  0  0  0  0  0
  -20.4918  -26.3441  -37.6380 H   0  0  0  0  0  0  0  0  0  0  0  0
  -18.9912  -23.6726  -37.6775 H   0  0  0  0  0  0  0  0  0  0  0  0
  -18.8664  -24.8514  -38.9862 H   0  0  0  0  0  0  0  0  0  0  0  0
  -18.1771  -25.3450  -36.0405 H   0  0  0  0  0  0  0  0  0  0  0  0
  -18.1155  -26.5806  -37.2996 H   0  0  0  0  0  0  0  0  0  0  0  0
  -16.3317  -25.4574  -38.4706 H   0  0  0  0  0  0  0  0  0  0  0  0
  -16.5677  -23.9620  -37.5630 H   0  0  0  0  0  0  0  0  0  0  0  0
  -15.7572  -25.0136  -35.4952 H   0  0  0  0  0  0  0  0  0  0  0  0
  -15.6975  -26.5984  -36.2699 H   0  0  0  0  0  0  0  0  0  0  0  0
  -14.0174  -24.1659  -37.0815 H   0  0  0  0  0  0  0  0  0  0  0  0
  -13.9636  -25.7431  -37.8719 H   0  0  0  0  0  0  0  0  0  0  0  0
  -13.3348  -25.2644  -34.9106 H   0  0  0  0  0  0  0  0  0  0  0  0
  -13.2086  -26.8087  -35.7560 H   0  0  0  0  0  0  0  0  0  0  0  0
  -11.5218  -24.2984  -36.1731 H   0  0  0  0  0  0  0  0  0  0  0  0
  -11.5780  -25.5856  -37.3803 H   0  0  0  0  0  0  0  0  0  0  0  0
   -9.6864  -25.6701  -35.5870 H   0  0  0  0  0  0  0  0  0  0  0  0
  -10.9336  -26.1518  -34.4418 H   0  0  0  0  0  0  0  0  0  0  0  0
  -10.3861  -27.6032  -37.0676 H   0  0  0  0  0  0  0  0  0  0  0  0
  -11.4231  -28.1715  -35.7631 H   0  0  0  0  0  0  0  0  0  0  0  0
   -6.4006  -32.4510  -35.7456 H   0  0  0  0  0  0  0  0  0  0  0  0
   -7.3617  -33.4731  -36.8290 H   0  0  0  0  0  0  0  0  0  0  0  0
   -9.4245  -28.4001  -34.2631 H   0  0  0  0  0  0  0  0  0  0  0  0
   -8.3838  -27.7648  -35.5462 H   0  0  0  0  0  0  0  0  0  0  0  0
   -9.0297  -31.8741  -36.8343 H   0  0  0  0  0  0  0  0  0  0  0  0
   -9.8084  -29.9394  -36.6307 H   0  0  0  0  0  0  0  0  0  0  0  0
  1 19  1  0  0  0  0
  1 20  1  0  0  0  0
  1 21  2  0  0  0  0
  2  4  1  0  0  0  0
  3  5  1  0  0  0  0
  4  6  1  0  0  0  0
  5 17  1  0  0  0  0
  6  7  1  0  0  0  0
  7  8  1  0  0  0  0
  8  9  1  0  0  0  0
  9 10  1  0  0  0  0
 10 11  1  0  0  0  0
 11 12  1  0  0  0  0
 12 13  1  0  0  0  0
 13 14  1  0  0  0  0
 14 15  1  0  0  0  0
 15 16  1  0  0  0  0
 16 18  1  0  0  0  0
 17 19  1  0  0  0  0
 18 20  1  0  0  0  0
  2 22  1  0  0  0  0
  2 23  1  0  0  0  0
  2 24  1  0  0  0  0
  3 25  1  0  0  0  0
  3 26  1  0  0  0  0
  3 27  1  0  0  0  0
  4 28  1  0  0  0  0
  4 29  1  0  0  0  0
  5 30  1  0  0  0  0
  5 31  1  0  0  0  0
  6 32  1  0  0  0  0
  6 33  1  0  0  0  0
  7 34  1  0  0  0  0
  7 35  1  0  0  0  0
  8 36  1  0  0  0  0
  8 37  1  0  0  0  0
  9 38  1  0  0  0  0
  9 39  1  0  0  0  0
 10 40  1  0  0  0  0
 10 41  1  0  0  0  0
 11 42  1  0  0  0  0
 11 43  1  0  0  0  0
 12 44  1  0  0  0  0
 12 45  1  0  0  0  0
 13 46  1  0  0  0  0
 13 47  1  0  0  0  0
 14 48  1  0  0  0  0
 14 49  1  0  0  0  0
 15 50  1  0  0  0  0
 15 51  1  0  0  0  0
 16 52  1  0  0  0  0
 16 53  1  0  0  0  0
 17 54  1  0  0  0  0
 17 55  1  0  0  0  0
 18 56  1  0  0  0  0
 18 57  1  0  0  0  0
 19 58  1  0  0  0  0
 20 59  1  0  0  0  0
M  END
> <Name>
IA_100.cdx

> <SourceTag>
IA_100

> <Gold.Version>
5.2

> <Gold.Id.Protein>
6HGV|6HGV_protein|mol2

> <Gold.Goldscore.Fitness>
68.3227

> <Gold.Goldscore.Internal.Vdw>
-7.8410

> <Gold.Goldscore.Internal.Torsion>
-3.8993

> <Gold.Goldscore.External.Vdw>
51.5043

> <Gold.Goldscore.Internal.HBond>
0.0000

> <Gold.Goldscore.External.HBond>
1.6670

> <Gold.Goldscore.Internal.Correction>
-7.5775

> <Gold.Goldscore.Hbonds>
donor molecule, donor type, donor heavy atom, donor atom, acceptor molecule, acceptor atom, score
      L1  H    19    58       P1  1255  0.48
      L1  H    20    59       P1  1255  0.35

> <Gold.Goldscore.Internal.Vdw.Weighted>
-7.8410

> <Gold.Goldscore.Internal.Torsion.Weighted>
-3.8993

> <Gold.Goldscore.External.Vdw.Weighted>
70.8185

> <Gold.Goldscore.Internal.HBond.Weighted>
0.0000

> <Gold.Goldscore.External.HBond.Weighted>
1.6670

> <Gold.Goldscore.Internal.Correction.Weighted>
-7.5775

> <Gold.Protein.RotatedTorsions>
[ 3781 1176 1175 1172 ] final  134.41 input   60.00 | X-H torsion
[ 3847 1247 1246 1244 ] final  119.26 input   60.00 | X-H torsion
[ 4507 1931 1930 1928 ] final  107.68 input   60.00 | X-H torsion
[ 3677 1070 1069 1066 ] final -105.06 input   60.00 | X-H torsion
[ 3525  925  924  922 ] final   35.93 input   59.99 | X-H torsion
[ 4531 1957 1955 1953 ] final   39.89 input   60.00 | X-H torsion

> <Gold.Protein.ActiveResidues>
 PHE267  PRO268  MET310  ASP335  TRP336  MET339  TYR343  THR360  PRO361  ILE363
 PRO371  SER374  ILE375  ASN378  PHE381  TYR383  GLN384  PHE387  LEU408  LEU417
 MET419  LEU428  TYR466  MET469  ASN472  ASP496  VAL498  LEU499  MET503  HIS524
 TRP525

> <Gold.Protein.RotatedAtoms>
   -3.1620  -29.7040  -30.8209 H   0  0  0  0  0  0  0  0  0  0  0  0  # atno 3525 bound_to 925
  -11.6623  -23.7175  -31.4317 H   0  0  0  0  0  0  0  0  0  0  0  0  # atno 3677 bound_to 1070
   -9.6547  -36.9439  -32.4127 H   0  0  0  0  0  0  0  0  0  0  0  0  # atno 3781 bound_to 1176
  -14.3162  -28.3002  -37.7617 H   0  0  0  0  0  0  0  0  0  0  0  0  # atno 3847 bound_to 1247
  -12.4314  -24.0499  -39.1931 H   0  0  0  0  0  0  0  0  0  0  0  0  # atno 4507 bound_to 1931
   -3.0979  -33.0911  -36.6534 H   0  0  0  0  0  0  0  0  0  0  0  0  # atno 4531 bound_to 1957
  -10.8367  -37.3373  -33.4597 LP  0  0  0  0  0  0  0  0  0  0  0  0  # atno 5205 bound_to 1176
   -9.6220  -36.3515  -33.9279 LP  0  0  0  0  0  0  0  0  0  0  0  0  # atno 5206 bound_to 1176
  -15.7205  -28.7124  -37.0502 LP  0  0  0  0  0  0  0  0  0  0  0  0  # atno 5215 bound_to 1247
  -15.5339  -27.2229  -37.6932 LP  0  0  0  0  0  0  0  0  0  0  0  0  # atno 5216 bound_to 1247
  -13.3849  -25.3680  -39.2330 LP  0  0  0  0  0  0  0  0  0  0  0  0  # atno 5217 bound_to 1931
  -13.3829  -24.3200  -40.4853 LP  0  0  0  0  0  0  0  0  0  0  0  0  # atno 5218 bound_to 1931
  -11.3894  -22.2683  -30.7435 LP  0  0  0  0  0  0  0  0  0  0  0  0  # atno 5224 bound_to 1070
  -12.8043  -23.0428  -30.4890 LP  0  0  0  0  0  0  0  0  0  0  0  0  # atno 5225 bound_to 1070

$$$$
IA_100.cdx|SeH_inactivess_minimized|sdf|2|dock6
  -GOLD-   4172118193D 1   1.00000     0.00000

 59 58  0  0  0  0  0  0  0  0  1 V2000
   -7.2950  -29.5232  -35.1591 C   0  0  0  0  0  0  0  0  0  0  0  0
  -22.1472  -22.7596  -39.7342 C   0  0  0  0  0  0  0  0  0  0  0  0
   -3.7237  -32.6987  -34.3523 C   0  0  0  0  0  0  0  0  0  0  0  0
  -22.4414  -24.0698  -39.0194 C   0  0  0  0  0  0  0  0  0  0  0  0
   -4.3070  -31.3265  -34.0466 C   0  0  0  0  0  0  0  0  0  0  0  0
  -21.4821  -24.2940  -37.8500 C   0  0  0  0  0  0  0  0  0  0  0  0
  -20.0059  -24.2243  -38.2512 C   0  0  0  0  0  0  0  0  0  0  0  0
  -19.0648  -24.8505  -37.2197 C   0  0  0  0  0  0  0  0  0  0  0  0
  -17.5994  -24.6500  -37.6135 C   0  0  0  0  0  0  0  0  0  0  0  0
  -16.6554  -25.1946  -36.5402 C   0  0  0  0  0  0  0  0  0  0  0  0
  -15.1909  -24.9943  -36.9335 C   0  0  0  0  0  0  0  0  0  0  0  0
  -14.2514  -25.7170  -35.9668 C   0  0  0  0  0  0  0  0  0  0  0  0
  -12.7868  -25.5168  -36.3600 C   0  0  0  0  0  0  0  0  0  0  0  0
  -11.8439  -26.1651  -35.3437 C   0  0  0  0  0  0  0  0  0  0  0  0
  -10.3817  -25.8447  -35.6621 C   0  0  0  0  0  0  0  0  0  0  0  0
   -9.3919  -26.4701  -34.6741 C   0  0  0  0  0  0  0  0  0  0  0  0
   -5.1321  -30.7670  -35.1993 C   0  0  0  0  0  0  0  0  0  0  0  0
   -9.2254  -27.9781  -34.8589 C   0  0  0  0  0  0  0  0  0  0  0  0
   -5.9574  -29.6524  -34.7950 N   0  0  0  0  0  0  0  0  0  0  0  0
   -7.8361  -28.3626  -34.6329 N   0  0  0  0  0  0  0  0  0  0  0  0
   -7.9088  -30.3327  -35.8532 O   0  0  0  0  0  0  0  0  0  0  0  0
  -21.1960  -22.8264  -40.2714 H   0  0  0  0  0  0  0  0  0  0  0  0
  -22.9318  -22.5244  -40.4604 H   0  0  0  0  0  0  0  0  0  0  0  0
  -22.0774  -21.9308  -39.0224 H   0  0  0  0  0  0  0  0  0  0  0  0
   -3.1374  -33.0727  -33.5069 H   0  0  0  0  0  0  0  0  0  0  0  0
   -4.5282  -33.4145  -34.5492 H   0  0  0  0  0  0  0  0  0  0  0  0
   -3.0771  -32.6698  -35.2348 H   0  0  0  0  0  0  0  0  0  0  0  0
  -23.4772  -24.0489  -38.6643 H   0  0  0  0  0  0  0  0  0  0  0  0
  -22.3574  -24.8959  -39.7347 H   0  0  0  0  0  0  0  0  0  0  0  0
   -3.4834  -30.6354  -33.8327 H   0  0  0  0  0  0  0  0  0  0  0  0
   -4.9210  -31.3898  -33.1403 H   0  0  0  0  0  0  0  0  0  0  0  0
  -21.6645  -23.5282  -37.0858 H   0  0  0  0  0  0  0  0  0  0  0  0
  -21.6903  -25.2632  -37.3804 H   0  0  0  0  0  0  0  0  0  0  0  0
  -19.7384  -23.1687  -38.3851 H   0  0  0  0  0  0  0  0  0  0  0  0
  -19.8660  -24.7109  -39.2242 H   0  0  0  0  0  0  0  0  0  0  0  0
  -19.2668  -25.9235  -37.1292 H   0  0  0  0  0  0  0  0  0  0  0  0
  -19.2451  -24.4004  -36.2361 H   0  0  0  0  0  0  0  0  0  0  0  0
  -17.4032  -25.1561  -38.5666 H   0  0  0  0  0  0  0  0  0  0  0  0
  -17.4026  -23.5821  -37.7676 H   0  0  0  0  0  0  0  0  0  0  0  0
  -16.8522  -24.6888  -35.5870 H   0  0  0  0  0  0  0  0  0  0  0  0
  -16.8517  -26.2627  -36.3859 H   0  0  0  0  0  0  0  0  0  0  0  0
  -15.0293  -25.3688  -37.9516 H   0  0  0  0  0  0  0  0  0  0  0  0
  -14.9563  -23.9229  -36.9420 H   0  0  0  0  0  0  0  0  0  0  0  0
  -14.4862  -26.7883  -35.9587 H   0  0  0  0  0  0  0  0  0  0  0  0
  -14.4130  -25.3427  -34.9487 H   0  0  0  0  0  0  0  0  0  0  0  0
  -12.6111  -25.9490  -37.3525 H   0  0  0  0  0  0  0  0  0  0  0  0
  -12.5686  -24.4442  -36.4308 H   0  0  0  0  0  0  0  0  0  0  0  0
  -11.9916  -27.2517  -35.3477 H   0  0  0  0  0  0  0  0  0  0  0  0
  -12.0977  -25.8055  -34.3404 H   0  0  0  0  0  0  0  0  0  0  0  0
  -10.1442  -26.2192  -36.6657 H   0  0  0  0  0  0  0  0  0  0  0  0
  -10.2375  -24.7577  -35.6888 H   0  0  0  0  0  0  0  0  0  0  0  0
   -9.7547  -26.2673  -33.6580 H   0  0  0  0  0  0  0  0  0  0  0  0
   -8.4188  -25.9713  -34.7661 H   0  0  0  0  0  0  0  0  0  0  0  0
   -4.4703  -30.4040  -35.9919 H   0  0  0  0  0  0  0  0  0  0  0  0
   -5.7879  -31.5321  -35.6266 H   0  0  0  0  0  0  0  0  0  0  0  0
   -9.5058  -28.2764  -35.8735 H   0  0  0  0  0  0  0  0  0  0  0  0
   -9.8702  -28.5197  -34.1586 H   0  0  0  0  0  0  0  0  0  0  0  0
   -5.5418  -28.9280  -34.2175 H   0  0  0  0  0  0  0  0  0  0  0  0
   -7.2801  -27.7724  -34.0339 H   0  0  0  0  0  0  0  0  0  0  0  0
  1 19  1  0  0  0  0
  1 20  1  0  0  0  0
  1 21  2  0  0  0  0
  2  4  1  0  0  0  0
  3  5  1  0  0  0  0
  4  6  1  0  0  0  0
  5 17  1  0  0  0  0
  6  7  1  0  0  0  0
  7  8  1  0  0  0  0
  8  9  1  0  0  0  0
  9 10  1  0  0  0  0
 10 11  1  0  0  0  0
 11 12  1  0  0  0  0
 12 13  1  0  0  0  0
 13 14  1  0  0  0  0
 14 15  1  0  0  0  0
 15 16  1  0  0  0  0
 16 18  1  0  0  0  0
 17 19  1  0  0  0  0
 18 20  1  0  0  0  0
  2 22  1  0  0  0  0
  2 23  1  0  0  0  0
  2 24  1  0  0  0  0
  3 25  1  0  0  0  0
  3 26  1  0  0  0  0
  3 27  1  0  0  0  0
  4 28  1  0  0  0  0
  4 29  1  0  0  0  0
  5 30  1  0  0  0  0
  5 31  1  0  0  0  0
  6 32  1  0  0  0  0
  6 33  1  0  0  0  0
  7 34  1  0  0  0  0
  7 35  1  0  0  0  0
  8 36  1  0  0  0  0
  8 37  1  0  0  0  0
  9 38  1  0  0  0  0
  9 39  1  0  0  0  0
 10 40  1  0  0  0  0
 10 41  1  0  0  0  0
 11 42  1  0  0  0  0
 11 43  1  0  0  0  0
 12 44  1  0  0  0  0
 12 45  1  0  0  0  0
 13 46  1  0  0  0  0
 13 47  1  0  0  0  0
 14 48  1  0  0  0  0
 14 49  1  0  0  0  0
 15 50  1  0  0  0  0
 15 51  1  0  0  0  0
 16 52  1  0  0  0  0
 16 53  1  0  0  0  0
 17 54  1  0  0  0  0
 17 55  1  0  0  0  0
 18 56  1  0  0  0  0
 18 57  1  0  0  0  0
 19 58  1  0  0  0  0
 20 59  1  0  0  0  0
M  END
> <Name>
IA_100.cdx

> <SourceTag>
IA_100

> <Gold.Version>
5.2

> <Gold.Id.Protein>
6HGV|6HGV_protein|mol2

> <Gold.Goldscore.Fitness>
67.1446

> <Gold.Goldscore.Internal.Vdw>
-8.6201

> <Gold.Goldscore.Internal.Torsion>
-5.2842

> <Gold.Goldscore.External.Vdw>
53.3080

> <Gold.Goldscore.Internal.HBond>
0.0000

> <Gold.Goldscore.External.HBond>
0.0000

> <Gold.Goldscore.Internal.Correction>
-7.7505

> <Gold.Goldscore.Internal.Vdw.Weighted>
-8.6201

> <Gold.Goldscore.Internal.Torsion.Weighted>
-5.2842

> <Gold.Goldscore.External.Vdw.Weighted>
73.2985

> <Gold.Goldscore.Internal.HBond.Weighted>
0.0000

> <Gold.Goldscore.External.HBond.Weighted>
0.0000

> <Gold.Goldscore.Internal.Correction.Weighted>
-7.7505

> <Gold.Protein.RotatedTorsions>
[ 3781 1176 1175 1172 ] final -170.90 input   60.00 | X-H torsion
[ 3847 1247 1246 1244 ] final  -15.63 input   60.00 | X-H torsion
[ 4507 1931 1930 1928 ] final  115.49 input   60.00 | X-H torsion
[ 3677 1070 1069 1066 ] final  -99.69 input   60.00 | X-H torsion
[ 3525  925  924  922 ] final   33.27 input   59.99 | X-H torsion
[ 4531 1957 1955 1953 ] final  -79.50 input   60.00 | X-H torsion

> <Gold.Protein.ActiveResidues>
 PHE267  PRO268  MET310  ASP335  TRP336  MET339  TYR343  THR360  PRO361  ILE363
 PRO371  SER374  ILE375  ASN378  PHE381  TYR383  GLN384  PHE387  LEU408  LEU417
 MET419  LEU428  TYR466  MET469  ASN472  ASP496  VAL498  LEU499  MET503  HIS524
 TRP525

> <Gold.Protein.RotatedAtoms>
   -3.1998  -29.6889  -30.8059 H   0  0  0  0  0  0  0  0  0  0  0  0  # atno 3525 bound_to 925
  -11.7395  -23.7559  -31.4157 H   0  0  0  0  0  0  0  0  0  0  0  0  # atno 3677 bound_to 1070
   -9.2474  -36.4553  -32.9915 H   0  0  0  0  0  0  0  0  0  0  0  0  # atno 3781 bound_to 1176
  -15.8802  -28.5288  -37.0604 H   0  0  0  0  0  0  0  0  0  0  0  0  # atno 3847 bound_to 1247
  -12.4371  -23.9732  -39.2948 H   0  0  0  0  0  0  0  0  0  0  0  0  # atno 4507 bound_to 1931
   -1.6912  -32.3361  -36.9078 H   0  0  0  0  0  0  0  0  0  0  0  0  # atno 4531 bound_to 1957
  -10.5142  -37.4215  -32.6603 LP  0  0  0  0  0  0  0  0  0  0  0  0  # atno 5205 bound_to 1176
  -10.3547  -36.7592  -34.1445 LP  0  0  0  0  0  0  0  0  0  0  0  0  # atno 5206 bound_to 1176
  -15.3129  -27.1907  -37.7923 LP  0  0  0  0  0  0  0  0  0  0  0  0  # atno 5215 bound_to 1247
  -14.3664  -28.5145  -37.6573 LP  0  0  0  0  0  0  0  0  0  0  0  0  # atno 5216 bound_to 1247
  -13.3071  -25.3391  -39.1350 LP  0  0  0  0  0  0  0  0  0  0  0  0  # atno 5217 bound_to 1931
  -13.4550  -24.4262  -40.4809 LP  0  0  0  0  0  0  0  0  0  0  0  0  # atno 5218 bound_to 1931
  -11.3301  -22.3082  -30.7954 LP  0  0  0  0  0  0  0  0  0  0  0  0  # atno 5224 bound_to 1070
  -12.7859  -22.9641  -30.4532 LP  0  0  0  0  0  0  0  0  0  0  0  0  # atno 5225 bound_to 1070

$$$$
IA_100.cdx|SeH_inactivess_minimized|sdf|2|dock1
  -GOLD-   4172118173D 1   1.00000     0.00000

 59 58  0  0  0  0  0  0  0  0  1 V2000
   -7.9323  -28.3499  -34.9119 C   0  0  0  0  0  0  0  0  0  0  0  0
  -24.7601  -22.0376  -39.2492 C   0  0  0  0  0  0  0  0  0  0  0  0
   -7.5196  -32.3562  -34.0619 C   0  0  0  0  0  0  0  0  0  0  0  0
  -23.8958  -22.9207  -38.3619 C   0  0  0  0  0  0  0  0  0  0  0  0
   -6.8070  -31.8929  -35.3246 C   0  0  0  0  0  0  0  0  0  0  0  0
  -22.4513  -22.9684  -38.8612 C   0  0  0  0  0  0  0  0  0  0  0  0
  -21.5309  -23.8201  -37.9822 C   0  0  0  0  0  0  0  0  0  0  0  0
  -20.0681  -23.7967  -38.4312 C   0  0  0  0  0  0  0  0  0  0  0  0
  -19.1766  -24.5664  -37.4539 C   0  0  0  0  0  0  0  0  0  0  0  0
  -17.7136  -24.5448  -37.9001 C   0  0  0  0  0  0  0  0  0  0  0  0
  -16.8025  -25.1856  -36.8519 C   0  0  0  0  0  0  0  0  0  0  0  0
  -15.3274  -25.0171  -37.2194 C   0  0  0  0  0  0  0  0  0  0  0  0
  -14.4161  -25.6579  -36.1713 C   0  0  0  0  0  0  0  0  0  0  0  0
  -12.9400  -25.4892  -36.5390 C   0  0  0  0  0  0  0  0  0  0  0  0
  -12.0309  -26.1313  -35.4886 C   0  0  0  0  0  0  0  0  0  0  0  0
  -10.5393  -25.9012  -35.7515 C   0  0  0  0  0  0  0  0  0  0  0  0
   -6.5607  -30.3892  -35.3439 C   0  0  0  0  0  0  0  0  0  0  0  0
   -9.6345  -26.5439  -34.7006 C   0  0  0  0  0  0  0  0  0  0  0  0
   -7.7874  -29.6318  -35.4355 N   0  0  0  0  0  0  0  0  0  0  0  0
   -9.2089  -27.8671  -35.1441 N   0  0  0  0  0  0  0  0  0  0  0  0
   -7.0443  -27.7335  -34.3244 O   0  0  0  0  0  0  0  0  0  0  0  0
  -24.7663  -22.4211  -40.2743 H   0  0  0  0  0  0  0  0  0  0  0  0
  -25.7936  -22.0124  -38.8896 H   0  0  0  0  0  0  0  0  0  0  0  0
  -24.3787  -21.0118  -39.2731 H   0  0  0  0  0  0  0  0  0  0  0  0
   -6.8884  -32.2101  -33.1795 H   0  0  0  0  0  0  0  0  0  0  0  0
   -8.4408  -31.7827  -33.9175 H   0  0  0  0  0  0  0  0  0  0  0  0
   -7.7895  -33.4150  -34.1216 H   0  0  0  0  0  0  0  0  0  0  0  0
  -23.9330  -22.5310  -37.3392 H   0  0  0  0  0  0  0  0  0  0  0  0
  -24.3174  -23.9322  -38.3421 H   0  0  0  0  0  0  0  0  0  0  0  0
   -7.4207  -32.1623  -36.1921 H   0  0  0  0  0  0  0  0  0  0  0  0
   -5.8565  -32.4313  -35.4199 H   0  0  0  0  0  0  0  0  0  0  0  0
  -22.4371  -23.3865  -39.8755 H   0  0  0  0  0  0  0  0  0  0  0  0
  -22.0507  -21.9499  -38.9347 H   0  0  0  0  0  0  0  0  0  0  0  0
  -21.8963  -24.8543  -38.0075 H   0  0  0  0  0  0  0  0  0  0  0  0
  -21.6042  -23.4851  -36.9403 H   0  0  0  0  0  0  0  0  0  0  0  0
  -19.7127  -22.7627  -38.5005 H   0  0  0  0  0  0  0  0  0  0  0  0
  -19.9831  -24.2386  -39.4312 H   0  0  0  0  0  0  0  0  0  0  0  0
  -19.2621  -24.1248  -36.4535 H   0  0  0  0  0  0  0  0  0  0  0  0
  -19.5222  -25.6047  -37.3799 H   0  0  0  0  0  0  0  0  0  0  0  0
  -17.6120  -25.0803  -38.8520 H   0  0  0  0  0  0  0  0  0  0  0  0
  -17.3987  -23.5089  -38.0768 H   0  0  0  0  0  0  0  0  0  0  0  0
  -16.9915  -24.7296  -35.8726 H   0  0  0  0  0  0  0  0  0  0  0  0
  -17.0394  -26.2528  -36.7628 H   0  0  0  0  0  0  0  0  0  0  0  0
  -15.0908  -23.9498  -37.3083 H   0  0  0  0  0  0  0  0  0  0  0  0
  -15.1383  -25.4729  -38.1988 H   0  0  0  0  0  0  0  0  0  0  0  0
  -14.6055  -25.2016  -35.1922 H   0  0  0  0  0  0  0  0  0  0  0  0
  -14.6523  -26.7252  -36.0821 H   0  0  0  0  0  0  0  0  0  0  0  0
  -12.7038  -24.4220  -36.6270 H   0  0  0  0  0  0  0  0  0  0  0  0
  -12.7616  -25.9444  -37.5195 H   0  0  0  0  0  0  0  0  0  0  0  0
  -12.2719  -25.7127  -34.5035 H   0  0  0  0  0  0  0  0  0  0  0  0
  -12.2326  -27.2079  -35.4318 H   0  0  0  0  0  0  0  0  0  0  0  0
  -10.3622  -24.8179  -35.7687 H   0  0  0  0  0  0  0  0  0  0  0  0
  -10.2813  -26.2780  -36.7494 H   0  0  0  0  0  0  0  0  0  0  0  0
   -6.0618  -30.0794  -34.4202 H   0  0  0  0  0  0  0  0  0  0  0  0
   -5.9252  -30.1014  -36.1874 H   0  0  0  0  0  0  0  0  0  0  0  0
  -10.1637  -26.6520  -33.7492 H   0  0  0  0  0  0  0  0  0  0  0  0
   -8.7524  -25.9187  -34.5259 H   0  0  0  0  0  0  0  0  0  0  0  0
   -8.5825  -30.0548  -35.9044 H   0  0  0  0  0  0  0  0  0  0  0  0
   -9.8675  -28.4157  -35.6748 H   0  0  0  0  0  0  0  0  0  0  0  0
  1 19  1  0  0  0  0
  1 20  1  0  0  0  0
  1 21  2  0  0  0  0
  2  4  1  0  0  0  0
  3  5  1  0  0  0  0
  4  6  1  0  0  0  0
  5 17  1  0  0  0  0
  6  7  1  0  0  0  0
  7  8  1  0  0  0  0
  8  9  1  0  0  0  0
  9 10  1  0  0  0  0
 10 11  1  0  0  0  0
 11 12  1  0  0  0  0
 12 13  1  0  0  0  0
 13 14  1  0  0  0  0
 14 15  1  0  0  0  0
 15 16  1  0  0  0  0
 16 18  1  0  0  0  0
 17 19  1  0  0  0  0
 18 20  1  0  0  0  0
  2 22  1  0  0  0  0
  2 23  1  0  0  0  0
  2 24  1  0  0  0  0
  3 25  1  0  0  0  0
  3 26  1  0  0  0  0
  3 27  1  0  0  0  0
  4 28  1  0  0  0  0
  4 29  1  0  0  0  0
  5 30  1  0  0  0  0
  5 31  1  0  0  0  0
  6 32  1  0  0  0  0
  6 33  1  0  0  0  0
  7 34  1  0  0  0  0
  7 35  1  0  0  0  0
  8 36  1  0  0  0  0
  8 37  1  0  0  0  0
  9 38  1  0  0  0  0
  9 39  1  0  0  0  0
 10 40  1  0  0  0  0
 10 41  1  0  0  0  0
 11 42  1  0  0  0  0
 11 43  1  0  0  0  0
 12 44  1  0  0  0  0
 12 45  1  0  0  0  0
 13 46  1  0  0  0  0
 13 47  1  0  0  0  0
 14 48  1  0  0  0  0
 14 49  1  0  0  0  0
 15 50  1  0  0  0  0
 15 51  1  0  0  0  0
 16 52  1  0  0  0  0
 16 53  1  0  0  0  0
 17 54  1  0  0  0  0
 17 55  1  0  0  0  0
 18 56  1  0  0  0  0
 18 57  1  0  0  0  0
 19 58  1  0  0  0  0
 20 59  1  0  0  0  0
M  END
> <Name>
IA_100.cdx

> <SourceTag>
IA_100

> <Gold.Version>
5.2

> <Gold.Id.Protein>
6HGV|6HGV_protein|mol2

> <Gold.Goldscore.Fitness>
65.8429

> <Gold.Goldscore.Internal.Vdw>
-6.5355

> <Gold.Goldscore.Internal.Torsion>
-3.4748

> <Gold.Goldscore.External.Vdw>
49.5293

> <Gold.Goldscore.Internal.HBond>
0.0000

> <Gold.Goldscore.External.HBond>
0.0000

> <Gold.Goldscore.Internal.Correction>
-7.7505

> <Gold.Goldscore.Internal.Vdw.Weighted>
-6.5355

> <Gold.Goldscore.Internal.Torsion.Weighted>
-3.4748

> <Gold.Goldscore.External.Vdw.Weighted>
68.1027

> <Gold.Goldscore.Internal.HBond.Weighted>
0.0000

> <Gold.Goldscore.External.HBond.Weighted>
0.0000

> <Gold.Goldscore.Internal.Correction.Weighted>
-7.7505

> <Gold.Protein.RotatedTorsions>
[ 3781 1176 1175 1172 ] final -136.24 input   60.00 | X-H torsion
[ 3847 1247 1246 1244 ] final  117.47 input   60.00 | X-H torsion
[ 4507 1931 1930 1928 ] final  120.33 input   60.00 | X-H torsion
[ 3677 1070 1069 1066 ] final -111.15 input   60.00 | X-H torsion
[ 3525  925  924  922 ] final    4.83 input   59.99 | X-H torsion
[ 4531 1957 1955 1953 ] final   19.77 input   60.00 | X-H torsion

> <Gold.Protein.ActiveResidues>
 PHE267  PRO268  MET310  ASP335  TRP336  MET339  TYR343  THR360  PRO361  ILE363
 PRO371  SER374  ILE375  ASN378  PHE381  TYR383  GLN384  PHE387  LEU408  LEU417
 MET419  LEU428  TYR466  MET469  ASN472  ASP496  VAL498  LEU499  MET503  HIS524
 TRP525

> <Gold.Protein.RotatedAtoms>
   -3.5510  -29.5603  -30.5379 H   0  0  0  0  0  0  0  0  0  0  0  0  # atno 3525 bound_to 925
  -11.5779  -23.6664  -31.4441 H   0  0  0  0  0  0  0  0  0  0  0  0  # atno 3677 bound_to 1070
   -9.3353  -36.3146  -33.5239 H   0  0  0  0  0  0  0  0  0  0  0  0  # atno 3781 bound_to 1176
  -14.3200  -28.3268  -37.7500 H   0  0  0  0  0  0  0  0  0  0  0  0  # atno 3847 bound_to 1247
  -12.4465  -23.9312  -39.3611 H   0  0  0  0  0  0  0  0  0  0  0  0  # atno 4507 bound_to 1931
   -3.0273  -32.7719  -36.6613 H   0  0  0  0  0  0  0  0  0  0  0  0  # atno 4531 bound_to 1957
  -10.0646  -37.2235  -32.3881 LP  0  0  0  0  0  0  0  0  0  0  0  0  # atno 5205 bound_to 1176
  -10.7158  -37.0990  -33.8805 LP  0  0  0  0  0  0  0  0  0  0  0  0  # atno 5206 bound_to 1176
  -15.7423  -28.6926  -37.0492 LP  0  0  0  0  0  0  0  0  0  0  0  0  # atno 5215 bound_to 1247
  -15.5083  -27.2159  -37.7059 LP  0  0  0  0  0  0  0  0  0  0  0  0  # atno 5216 bound_to 1247
  -13.2566  -25.3140  -39.0789 LP  0  0  0  0  0  0  0  0  0  0  0  0  # atno 5217 bound_to 1931
  -13.4961  -24.4935  -40.4702 LP  0  0  0  0  0  0  0  0  0  0  0  0  # atno 5218 bound_to 1931
  -11.4626  -22.2309  -30.6863 LP  0  0  0  0  0  0  0  0  0  0  0  0  # atno 5224 bound_to 1070
  -12.8162  -23.1316  -30.5337 LP  0  0  0  0  0  0  0  0  0  0  0  0  # atno 5225 bound_to 1070

$$$$
IA_100.cdx|SeH_inactivess_minimized|sdf|2|dock3
  -GOLD-   4172118183D 1   1.00000     0.00000

 59 58  0  0  0  0  0  0  0  0  1 V2000
   -6.4847  -29.5272  -34.6309 C   0  0  0  0  0  0  0  0  0  0  0  0
  -22.5237  -22.7800  -39.3717 C   0  0  0  0  0  0  0  0  0  0  0  0
   -4.9691  -32.6894  -35.1554 C   0  0  0  0  0  0  0  0  0  0  0  0
  -21.7438  -23.6548  -38.4018 C   0  0  0  0  0  0  0  0  0  0  0  0
   -4.0860  -31.4603  -34.9936 C   0  0  0  0  0  0  0  0  0  0  0  0
  -20.2356  -23.4819  -38.5848 C   0  0  0  0  0  0  0  0  0  0  0  0
  -19.4036  -24.3428  -37.6300 C   0  0  0  0  0  0  0  0  0  0  0  0
  -17.8950  -24.2146  -37.8532 C   0  0  0  0  0  0  0  0  0  0  0  0
  -17.1139  -25.0979  -36.8774 C   0  0  0  0  0  0  0  0  0  0  0  0
  -15.6184  -25.0943  -37.1986 C   0  0  0  0  0  0  0  0  0  0  0  0
  -14.8022  -25.7001  -36.0556 C   0  0  0  0  0  0  0  0  0  0  0  0
  -13.3228  -25.8128  -36.4273 C   0  0  0  0  0  0  0  0  0  0  0  0
  -12.4663  -26.1508  -35.2059 C   0  0  0  0  0  0  0  0  0  0  0  0
  -11.0219  -26.4597  -35.6070 C   0  0  0  0  0  0  0  0  0  0  0  0
  -10.1210  -26.5879  -34.3766 C   0  0  0  0  0  0  0  0  0  0  0  0
   -8.7266  -27.1355  -34.6970 C   0  0  0  0  0  0  0  0  0  0  0  0
   -4.4330  -30.6447  -33.7541 C   0  0  0  0  0  0  0  0  0  0  0  0
   -8.7392  -28.5984  -35.1395 C   0  0  0  0  0  0  0  0  0  0  0  0
   -5.8389  -30.3192  -33.6854 N   0  0  0  0  0  0  0  0  0  0  0  0
   -7.8247  -29.3815  -34.3151 N   0  0  0  0  0  0  0  0  0  0  0  0
   -5.9358  -29.0275  -35.6122 O   0  0  0  0  0  0  0  0  0  0  0  0
  -22.2559  -21.7280  -39.2324 H   0  0  0  0  0  0  0  0  0  0  0  0
  -22.3039  -23.0522  -40.4089 H   0  0  0  0  0  0  0  0  0  0  0  0
  -23.6019  -22.8798  -39.2107 H   0  0  0  0  0  0  0  0  0  0  0  0
   -4.6774  -33.2684  -36.0374 H   0  0  0  0  0  0  0  0  0  0  0  0
   -4.8757  -33.3383  -34.2787 H   0  0  0  0  0  0  0  0  0  0  0  0
   -6.0230  -32.4129  -35.2573 H   0  0  0  0  0  0  0  0  0  0  0  0
  -22.0367  -23.3904  -37.3802 H   0  0  0  0  0  0  0  0  0  0  0  0
  -22.0213  -24.7031  -38.5608 H   0  0  0  0  0  0  0  0  0  0  0  0
   -4.2035  -30.8254  -35.8795 H   0  0  0  0  0  0  0  0  0  0  0  0
   -3.0358  -31.7737  -34.9561 H   0  0  0  0  0  0  0  0  0  0  0  0
  -19.9664  -23.7551  -39.6128 H   0  0  0  0  0  0  0  0  0  0  0  0
  -19.9654  -22.4263  -38.4585 H   0  0  0  0  0  0  0  0  0  0  0  0
  -19.6982  -25.3902  -37.7707 H   0  0  0  0  0  0  0  0  0  0  0  0
  -19.6482  -24.0829  -36.5928 H   0  0  0  0  0  0  0  0  0  0  0  0
  -17.5826  -23.1729  -37.7206 H   0  0  0  0  0  0  0  0  0  0  0  0
  -17.6499  -24.5002  -38.8832 H   0  0  0  0  0  0  0  0  0  0  0  0
  -17.2705  -24.7398  -35.8526 H   0  0  0  0  0  0  0  0  0  0  0  0
  -17.4965  -26.1248  -36.9234 H   0  0  0  0  0  0  0  0  0  0  0  0
  -15.4391  -25.6627  -38.1195 H   0  0  0  0  0  0  0  0  0  0  0  0
  -15.2848  -24.0658  -37.3835 H   0  0  0  0  0  0  0  0  0  0  0  0
  -14.9091  -25.0787  -35.1582 H   0  0  0  0  0  0  0  0  0  0  0  0
  -15.1961  -26.6938  -35.8097 H   0  0  0  0  0  0  0  0  0  0  0  0
  -12.9811  -24.8669  -36.8650 H   0  0  0  0  0  0  0  0  0  0  0  0
  -13.1942  -26.5882  -37.1923 H   0  0  0  0  0  0  0  0  0  0  0  0
  -12.4808  -25.3088  -34.5034 H   0  0  0  0  0  0  0  0  0  0  0  0
  -12.8951  -27.0150  -34.6842 H   0  0  0  0  0  0  0  0  0  0  0  0
  -10.6439  -25.6626  -36.2583 H   0  0  0  0  0  0  0  0  0  0  0  0
  -11.0028  -27.3898  -36.1857 H   0  0  0  0  0  0  0  0  0  0  0  0
  -10.0014  -25.5990  -33.9166 H   0  0  0  0  0  0  0  0  0  0  0  0
  -10.6044  -27.2276  -33.6280 H   0  0  0  0  0  0  0  0  0  0  0  0
   -8.1085  -27.0348  -33.7953 H   0  0  0  0  0  0  0  0  0  0  0  0
   -8.2583  -26.5138  -35.4705 H   0  0  0  0  0  0  0  0  0  0  0  0
   -4.1923  -31.2146  -32.8511 H   0  0  0  0  0  0  0  0  0  0  0  0
   -3.8699  -29.7065  -33.7251 H   0  0  0  0  0  0  0  0  0  0  0  0
   -8.4263  -28.6889  -36.1840 H   0  0  0  0  0  0  0  0  0  0  0  0
   -9.7496  -29.0122  -35.0537 H   0  0  0  0  0  0  0  0  0  0  0  0
   -6.3823  -30.6857  -32.9100 H   0  0  0  0  0  0  0  0  0  0  0  0
   -8.2106  -29.8615  -33.5170 H   0  0  0  0  0  0  0  0  0  0  0  0
  1 19  1  0  0  0  0
  1 20  1  0  0  0  0
  1 21  2  0  0  0  0
  2  4  1  0  0  0  0
  3  5  1  0  0  0  0
  4  6  1  0  0  0  0
  5 17  1  0  0  0  0
  6  7  1  0  0  0  0
  7  8  1  0  0  0  0
  8  9  1  0  0  0  0
  9 10  1  0  0  0  0
 10 11  1  0  0  0  0
 11 12  1  0  0  0  0
 12 13  1  0  0  0  0
 13 14  1  0  0  0  0
 14 15  1  0  0  0  0
 15 16  1  0  0  0  0
 16 18  1  0  0  0  0
 17 19  1  0  0  0  0
 18 20  1  0  0  0  0
  2 22  1  0  0  0  0
  2 23  1  0  0  0  0
  2 24  1  0  0  0  0
  3 25  1  0  0  0  0
  3 26  1  0  0  0  0
  3 27  1  0  0  0  0
  4 28  1  0  0  0  0
  4 29  1  0  0  0  0
  5 30  1  0  0  0  0
  5 31  1  0  0  0  0
  6 32  1  0  0  0  0
  6 33  1  0  0  0  0
  7 34  1  0  0  0  0
  7 35  1  0  0  0  0
  8 36  1  0  0  0  0
  8 37  1  0  0  0  0
  9 38  1  0  0  0  0
  9 39  1  0  0  0  0
 10 40  1  0  0  0  0
 10 41  1  0  0  0  0
 11 42  1  0  0  0  0
 11 43  1  0  0  0  0
 12 44  1  0  0  0  0
 12 45  1  0  0  0  0
 13 46  1  0  0  0  0
 13 47  1  0  0  0  0
 14 48  1  0  0  0  0
 14 49  1  0  0  0  0
 15 50  1  0  0  0  0
 15 51  1  0  0  0  0
 16 52  1  0  0  0  0
 16 53  1  0  0  0  0
 17 54  1  0  0  0  0
 17 55  1  0  0  0  0
 18 56  1  0  0  0  0
 18 57  1  0  0  0  0
 19 58  1  0  0  0  0
 20 59  1  0  0  0  0
M  END
> <Name>
IA_100.cdx

> <SourceTag>
IA_100

> <Gold.Version>
5.2

> <Gold.Id.Protein>
6HGV|6HGV_protein|mol2

> <Gold.Goldscore.Fitness>
63.8263

> <Gold.Goldscore.Internal.Vdw>
-6.5901

> <Gold.Goldscore.Internal.Torsion>
-5.4694

> <Gold.Goldscore.External.Vdw>
49.2841

> <Gold.Goldscore.Internal.HBond>
0.0000

> <Gold.Goldscore.External.HBond>
0.3696

> <Gold.Goldscore.Internal.Correction>
-7.7505

> <Gold.Goldscore.Hbonds>
donor molecule, donor type, donor heavy atom, donor atom, acceptor molecule, acceptor atom, score
      P1  H  1994  4571       L1    21  0.18

> <Gold.Goldscore.Internal.Vdw.Weighted>
-6.5901

> <Gold.Goldscore.Internal.Torsion.Weighted>
-5.4694

> <Gold.Goldscore.External.Vdw.Weighted>
67.7657

> <Gold.Goldscore.Internal.HBond.Weighted>
0.0000

> <Gold.Goldscore.External.HBond.Weighted>
0.3696

> <Gold.Goldscore.Internal.Correction.Weighted>
-7.7505

> <Gold.Protein.RotatedTorsions>
[ 3781 1176 1175 1172 ] final  136.68 input   60.00 | X-H torsion
[ 3847 1247 1246 1244 ] final   81.63 input   60.00 | X-H torsion
[ 4507 1931 1930 1928 ] final  -32.35 input   60.00 | X-H torsion
[ 3677 1070 1069 1066 ] final -108.45 input   60.00 | X-H torsion
[ 3525  925  924  922 ] final   17.66 input   59.99 | X-H torsion
[ 4531 1957 1955 1953 ] final  126.15 input   60.00 | X-H torsion

> <Gold.Protein.ActiveResidues>
 PHE267  PRO268  MET310  ASP335  TRP336  MET339  TYR343  THR360  PRO361  ILE363
 PRO371  SER374  ILE375  ASN378  PHE381  TYR383  GLN384  PHE387  LEU408  LEU417
 MET419  LEU428  TYR466  MET469  ASN472  ASP496  VAL498  LEU499  MET503  HIS524
 TRP525

> <Gold.Protein.RotatedAtoms>
   -3.4072  -29.6099  -30.6817 H   0  0  0  0  0  0  0  0  0  0  0  0  # atno 3525 bound_to 925
  -11.6149  -23.6900  -31.4394 H   0  0  0  0  0  0  0  0  0  0  0  0  # atno 3677 bound_to 1070
   -9.6274  -36.9215  -32.4240 H   0  0  0  0  0  0  0  0  0  0  0  0  # atno 3781 bound_to 1176
  -14.5631  -28.7757  -37.4829 H   0  0  0  0  0  0  0  0  0  0  0  0  # atno 3847 bound_to 1247
  -13.5491  -25.3702  -39.5155 H   0  0  0  0  0  0  0  0  0  0  0  0  # atno 4507 bound_to 1931
   -2.2814  -34.0620  -36.8254 H   0  0  0  0  0  0  0  0  0  0  0  0  # atno 4531 bound_to 1957
  -10.8368  -37.3504  -33.4247 LP  0  0  0  0  0  0  0  0  0  0  0  0  # atno 5205 bound_to 1176
   -9.6494  -36.3609  -33.9515 LP  0  0  0  0  0  0  0  0  0  0  0  0  # atno 5206 bound_to 1176
  -16.0414  -28.2005  -37.1200 LP  0  0  0  0  0  0  0  0  0  0  0  0  # atno 5215 bound_to 1247
  -14.9644  -27.2560  -37.9040 LP  0  0  0  0  0  0  0  0  0  0  0  0  # atno 5216 bound_to 1247
  -13.1746  -24.0739  -40.4252 LP  0  0  0  0  0  0  0  0  0  0  0  0  # atno 5217 bound_to 1931
  -12.4676  -24.2844  -38.9683 LP  0  0  0  0  0  0  0  0  0  0  0  0  # atno 5218 bound_to 1931
  -11.4294  -22.2464  -30.7114 LP  0  0  0  0  0  0  0  0  0  0  0  0  # atno 5224 bound_to 1070
  -12.8121  -23.0923  -30.5134 LP  0  0  0  0  0  0  0  0  0  0  0  0  # atno 5225 bound_to 1070

$$$$
IA_100.cdx|SeH_inactivess_minimized|sdf|2|dock4
  -GOLD-   4172118183D 1   1.00000     0.00000

 59 58  0  0  0  0  0  0  0  0  1 V2000
   -6.8742  -30.7293  -35.2636 C   0  0  0  0  0  0  0  0  0  0  0  0
  -21.2908  -23.2541  -39.3112 C   0  0  0  0  0  0  0  0  0  0  0  0
   -5.2101  -33.4125  -33.5282 C   0  0  0  0  0  0  0  0  0  0  0  0
  -21.3956  -24.5426  -38.5094 C   0  0  0  0  0  0  0  0  0  0  0  0
   -4.1330  -32.7853  -34.4018 C   0  0  0  0  0  0  0  0  0  0  0  0
  -20.3582  -24.5862  -37.3869 C   0  0  0  0  0  0  0  0  0  0  0  0
  -18.9412  -24.8950  -37.8789 C   0  0  0  0  0  0  0  0  0  0  0  0
  -17.9218  -25.0383  -36.7466 C   0  0  0  0  0  0  0  0  0  0  0  0
  -16.4894  -24.9203  -37.2729 C   0  0  0  0  0  0  0  0  0  0  0  0
  -15.4795  -25.4738  -36.2662 C   0  0  0  0  0  0  0  0  0  0  0  0
  -14.0479  -25.3560  -36.7921 C   0  0  0  0  0  0  0  0  0  0  0  0
  -13.0255  -25.6332  -35.6888 C   0  0  0  0  0  0  0  0  0  0  0  0
  -11.6139  -25.2390  -36.1264 C   0  0  0  0  0  0  0  0  0  0  0  0
  -10.5628  -25.7392  -35.1327 C   0  0  0  0  0  0  0  0  0  0  0  0
  -10.3310  -27.2444  -35.2829 C   0  0  0  0  0  0  0  0  0  0  0  0
   -8.9356  -27.6933  -34.8374 C   0  0  0  0  0  0  0  0  0  0  0  0
   -4.7090  -31.9406  -35.5318 C   0  0  0  0  0  0  0  0  0  0  0  0
   -8.7851  -29.2124  -34.7623 C   0  0  0  0  0  0  0  0  0  0  0  0
   -5.5036  -30.8371  -35.0439 N   0  0  0  0  0  0  0  0  0  0  0  0
   -7.3739  -29.5752  -34.6849 N   0  0  0  0  0  0  0  0  0  0  0  0
   -7.5459  -31.5503  -35.8870 O   0  0  0  0  0  0  0  0  0  0  0  0
  -20.3194  -23.1975  -39.8122 H   0  0  0  0  0  0  0  0  0  0  0  0
  -22.0715  -23.2042  -40.0770 H   0  0  0  0  0  0  0  0  0  0  0  0
  -21.3892  -22.3783  -38.6618 H   0  0  0  0  0  0  0  0  0  0  0  0
   -5.8691  -32.6463  -33.1074 H   0  0  0  0  0  0  0  0  0  0  0  0
   -5.8240  -34.0981  -34.1211 H   0  0  0  0  0  0  0  0  0  0  0  0
   -4.7727  -33.9824  -32.7027 H   0  0  0  0  0  0  0  0  0  0  0  0
  -22.4073  -24.6157  -38.0966 H   0  0  0  0  0  0  0  0  0  0  0  0
  -21.2541  -25.3965  -39.1817 H   0  0  0  0  0  0  0  0  0  0  0  0
   -3.5225  -33.5864  -34.8345 H   0  0  0  0  0  0  0  0  0  0  0  0
   -3.4712  -32.1753  -33.7755 H   0  0  0  0  0  0  0  0  0  0  0  0
  -20.3389  -23.6135  -36.8797 H   0  0  0  0  0  0  0  0  0  0  0  0
  -20.6563  -25.3274  -36.6353 H   0  0  0  0  0  0  0  0  0  0  0  0
  -18.6259  -24.0807  -38.5432 H   0  0  0  0  0  0  0  0  0  0  0  0
  -18.9534  -25.8094  -38.4846 H   0  0  0  0  0  0  0  0  0  0  0  0
  -18.0422  -26.0089  -36.2530 H   0  0  0  0  0  0  0  0  0  0  0  0
  -18.0998  -24.2637  -35.9910 H   0  0  0  0  0  0  0  0  0  0  0  0
  -16.4007  -25.4658  -38.2203 H   0  0  0  0  0  0  0  0  0  0  0  0
  -16.2598  -23.8685  -37.4824 H   0  0  0  0  0  0  0  0  0  0  0  0
  -15.5688  -24.9286  -35.3187 H   0  0  0  0  0  0  0  0  0  0  0  0
  -15.7086  -26.5259  -36.0566 H   0  0  0  0  0  0  0  0  0  0  0  0
  -13.8998  -26.0641  -37.6164 H   0  0  0  0  0  0  0  0  0  0  0  0
  -13.8874  -24.3496  -37.1974 H   0  0  0  0  0  0  0  0  0  0  0  0
  -13.0453  -26.6986  -35.4291 H   0  0  0  0  0  0  0  0  0  0  0  0
  -13.2995  -25.0750  -34.7853 H   0  0  0  0  0  0  0  0  0  0  0  0
  -11.4081  -25.6554  -37.1199 H   0  0  0  0  0  0  0  0  0  0  0  0
  -11.5472  -24.1476  -36.2128 H   0  0  0  0  0  0  0  0  0  0  0  0
  -10.8905  -25.5177  -34.1099 H   0  0  0  0  0  0  0  0  0  0  0  0
   -9.6261  -25.1960  -35.2995 H   0  0  0  0  0  0  0  0  0  0  0  0
  -11.0714  -27.7822  -34.6775 H   0  0  0  0  0  0  0  0  0  0  0  0
  -10.4984  -27.5434  -36.3248 H   0  0  0  0  0  0  0  0  0  0  0  0
   -8.7412  -27.2603  -33.8475 H   0  0  0  0  0  0  0  0  0  0  0  0
   -8.1825  -27.2750  -35.5172 H   0  0  0  0  0  0  0  0  0  0  0  0
   -3.8985  -31.5114  -36.1293 H   0  0  0  0  0  0  0  0  0  0  0  0
   -5.3402  -32.5408  -36.1947 H   0  0  0  0  0  0  0  0  0  0  0  0
   -9.2159  -29.6877  -35.6485 H   0  0  0  0  0  0  0  0  0  0  0  0
   -9.3087  -29.6026  -33.8830 H   0  0  0  0  0  0  0  0  0  0  0  0
   -5.0401  -30.1046  -34.5152 H   0  0  0  0  0  0  0  0  0  0  0  0
   -6.7664  -28.9747  -34.1496 H   0  0  0  0  0  0  0  0  0  0  0  0
  1 19  1  0  0  0  0
  1 20  1  0  0  0  0
  1 21  2  0  0  0  0
  2  4  1  0  0  0  0
  3  5  1  0  0  0  0
  4  6  1  0  0  0  0
  5 17  1  0  0  0  0
  6  7  1  0  0  0  0
  7  8  1  0  0  0  0
  8  9  1  0  0  0  0
  9 10  1  0  0  0  0
 10 11  1  0  0  0  0
 11 12  1  0  0  0  0
 12 13  1  0  0  0  0
 13 14  1  0  0  0  0
 14 15  1  0  0  0  0
 15 16  1  0  0  0  0
 16 18  1  0  0  0  0
 17 19  1  0  0  0  0
 18 20  1  0  0  0  0
  2 22  1  0  0  0  0
  2 23  1  0  0  0  0
  2 24  1  0  0  0  0
  3 25  1  0  0  0  0
  3 26  1  0  0  0  0
  3 27  1  0  0  0  0
  4 28  1  0  0  0  0
  4 29  1  0  0  0  0
  5 30  1  0  0  0  0
  5 31  1  0  0  0  0
  6 32  1  0  0  0  0
  6 33  1  0  0  0  0
  7 34  1  0  0  0  0
  7 35  1  0  0  0  0
  8 36  1  0  0  0  0
  8 37  1  0  0  0  0
  9 38  1  0  0  0  0
  9 39  1  0  0  0  0
 10 40  1  0  0  0  0
 10 41  1  0  0  0  0
 11 42  1  0  0  0  0
 11 43  1  0  0  0  0
 12 44  1  0  0  0  0
 12 45  1  0  0  0  0
 13 46  1  0  0  0  0
 13 47  1  0  0  0  0
 14 48  1  0  0  0  0
 14 49  1  0  0  0  0
 15 50  1  0  0  0  0
 15 51  1  0  0  0  0
 16 52  1  0  0  0  0
 16 53  1  0  0  0  0
 17 54  1  0  0  0  0
 17 55  1  0  0  0  0
 18 56  1  0  0  0  0
 18 57  1  0  0  0  0
 19 58  1  0  0  0  0
 20 59  1  0  0  0  0
M  END
> <Name>
IA_100.cdx

> <SourceTag>
IA_100

> <Gold.Version>
5.2

> <Gold.Id.Protein>
6HGV|6HGV_protein|mol2

> <Gold.Goldscore.Fitness>
63.5862

> <Gold.Goldscore.Internal.Vdw>
-8.9794

> <Gold.Goldscore.Internal.Torsion>
-6.1373

> <Gold.Goldscore.External.Vdw>
51.6018

> <Gold.Goldscore.Internal.HBond>
0.0000

> <Gold.Goldscore.External.HBond>
0.0000

> <Gold.Goldscore.Internal.Correction>
-7.7505

> <Gold.Goldscore.Internal.Vdw.Weighted>
-8.9794

> <Gold.Goldscore.Internal.Torsion.Weighted>
-6.1373

> <Gold.Goldscore.External.Vdw.Weighted>
70.9524

> <Gold.Goldscore.Internal.HBond.Weighted>
0.0000

> <Gold.Goldscore.External.HBond.Weighted>
0.0000

> <Gold.Goldscore.Internal.Correction.Weighted>
-7.7505

> <Gold.Protein.RotatedTorsions>
[ 3781 1176 1175 1172 ] final -124.26 input   60.00 | X-H torsion
[ 3847 1247 1246 1244 ] final   93.15 input   60.00 | X-H torsion
[ 4507 1931 1930 1928 ] final   97.52 input   60.00 | X-H torsion
[ 3677 1070 1069 1066 ] final -100.72 input   60.00 | X-H torsion
[ 3525  925  924  922 ] final   59.51 input   59.99 | X-H torsion
[ 4531 1957 1955 1953 ] final  142.41 input   60.00 | X-H torsion

> <Gold.Protein.ActiveResidues>
 PHE267  PRO268  MET310  ASP335  TRP336  MET339  TYR343  THR360  PRO361  ILE363
 PRO371  SER374  ILE375  ASN378  PHE381  TYR383  GLN384  PHE387  LEU408  LEU417
 MET419  LEU428  TYR466  MET469  ASN472  ASP496  VAL498  LEU499  MET503  HIS524
 TRP525

> <Gold.Protein.RotatedAtoms>
   -2.8124  -29.8521  -30.8680 H   0  0  0  0  0  0  0  0  0  0  0  0  # atno 3525 bound_to 925
  -11.7245  -23.7490  -31.4191 H   0  0  0  0  0  0  0  0  0  0  0  0  # atno 3677 bound_to 1070
   -9.4281  -36.3120  -33.6959 H   0  0  0  0  0  0  0  0  0  0  0  0  # atno 3781 bound_to 1176
  -14.4523  -28.6535  -37.5731 H   0  0  0  0  0  0  0  0  0  0  0  0  # atno 3847 bound_to 1247
  -12.4415  -24.1641  -39.0735 H   0  0  0  0  0  0  0  0  0  0  0  0  # atno 4507 bound_to 1931
   -2.0214  -34.0531  -36.8747 H   0  0  0  0  0  0  0  0  0  0  0  0  # atno 4531 bound_to 1957
   -9.8981  -37.1212  -32.3646 LP  0  0  0  0  0  0  0  0  0  0  0  0  # atno 5205 bound_to 1176
  -10.7888  -37.2038  -33.7308 LP  0  0  0  0  0  0  0  0  0  0  0  0  # atno 5206 bound_to 1176
  -15.9773  -28.3738  -37.0789 LP  0  0  0  0  0  0  0  0  0  0  0  0  # atno 5215 bound_to 1247
  -15.1400  -27.2058  -37.8543 LP  0  0  0  0  0  0  0  0  0  0  0  0  # atno 5216 bound_to 1247
  -13.4770  -25.3836  -39.3712 LP  0  0  0  0  0  0  0  0  0  0  0  0  # atno 5217 bound_to 1931
  -13.2806  -24.1894  -40.4675 LP  0  0  0  0  0  0  0  0  0  0  0  0  # atno 5218 bound_to 1931
  -11.3411  -22.3001  -30.7854 LP  0  0  0  0  0  0  0  0  0  0  0  0  # atno 5224 bound_to 1070
  -12.7900  -22.9792  -30.4598 LP  0  0  0  0  0  0  0  0  0  0  0  0  # atno 5225 bound_to 1070

$$$$
IA_101.cdx|SeH_inactivess_minimized|sdf|3|dock3
  -GOLD-   4172118223D 1   1.00000     0.00000

 56 55  0  0  0  0  0  0  0  0  1 V2000
   -5.5346  -31.1102  -35.5465 C   0  0  0  0  0  0  0  0  0  0  0  0
  -22.6414  -22.5863  -39.8504 C   0  0  0  0  0  0  0  0  0  0  0  0
  -21.7094  -23.6406  -39.2742 C   0  0  0  0  0  0  0  0  0  0  0  0
  -21.4778  -23.4930  -37.7686 C   0  0  0  0  0  0  0  0  0  0  0  0
  -20.4027  -24.4066  -37.1701 C   0  0  0  0  0  0  0  0  0  0  0  0
  -18.9551  -24.0506  -37.5220 C   0  0  0  0  0  0  0  0  0  0  0  0
  -17.9212  -24.8351  -36.7105 C   0  0  0  0  0  0  0  0  0  0  0  0
  -16.5023  -24.5663  -37.2179 C   0  0  0  0  0  0  0  0  0  0  0  0
  -15.4264  -25.3645  -36.4750 C   0  0  0  0  0  0  0  0  0  0  0  0
  -13.9942  -25.2015  -36.9938 C   0  0  0  0  0  0  0  0  0  0  0  0
  -12.9470  -25.9025  -36.1263 C   0  0  0  0  0  0  0  0  0  0  0  0
  -11.5428  -25.3644  -36.4102 C   0  0  0  0  0  0  0  0  0  0  0  0
  -10.5222  -25.9196  -35.4137 C   0  0  0  0  0  0  0  0  0  0  0  0
  -10.1420  -27.3615  -35.7567 C   0  0  0  0  0  0  0  0  0  0  0  0
   -9.1209  -27.9702  -34.7905 C   0  0  0  0  0  0  0  0  0  0  0  0
   -8.4759  -29.2561  -35.3181 C   0  0  0  0  0  0  0  0  0  0  0  0
   -7.2923  -29.7078  -34.4671 C   0  0  0  0  0  0  0  0  0  0  0  0
   -5.2517  -32.4296  -35.8516 N   0  0  0  0  0  0  0  0  0  0  0  0
   -6.7578  -30.9706  -34.8954 N   0  0  0  0  0  0  0  0  0  0  0  0
   -4.7768  -30.1837  -35.8287 O   0  0  0  0  0  0  0  0  0  0  0  0
  -22.2143  -21.5842  -39.7440 H   0  0  0  0  0  0  0  0  0  0  0  0
  -23.6001  -22.6035  -39.3220 H   0  0  0  0  0  0  0  0  0  0  0  0
  -22.8441  -22.7656  -40.9102 H   0  0  0  0  0  0  0  0  0  0  0  0
  -20.7554  -23.6195  -39.8122 H   0  0  0  0  0  0  0  0  0  0  0  0
  -22.1461  -24.6294  -39.4598 H   0  0  0  0  0  0  0  0  0  0  0  0
  -22.4290  -23.6622  -37.2500 H   0  0  0  0  0  0  0  0  0  0  0  0
  -21.2015  -22.4528  -37.5536 H   0  0  0  0  0  0  0  0  0  0  0  0
  -20.6037  -25.4341  -37.4990 H   0  0  0  0  0  0  0  0  0  0  0  0
  -20.5033  -24.4167  -36.0781 H   0  0  0  0  0  0  0  0  0  0  0  0
  -18.7801  -24.2028  -38.5933 H   0  0  0  0  0  0  0  0  0  0  0  0
  -18.8159  -22.9778  -37.3378 H   0  0  0  0  0  0  0  0  0  0  0  0
  -18.1376  -25.9055  -36.7822 H   0  0  0  0  0  0  0  0  0  0  0  0
  -17.9934  -24.5548  -35.6529 H   0  0  0  0  0  0  0  0  0  0  0  0
  -16.4469  -24.7727  -38.2930 H   0  0  0  0  0  0  0  0  0  0  0  0
  -16.2746  -23.4994  -37.0990 H   0  0  0  0  0  0  0  0  0  0  0  0
  -15.6875  -26.4295  -36.5113 H   0  0  0  0  0  0  0  0  0  0  0  0
  -15.4537  -25.0778  -35.4162 H   0  0  0  0  0  0  0  0  0  0  0  0
  -13.7479  -24.1377  -37.0875 H   0  0  0  0  0  0  0  0  0  0  0  0
  -13.9535  -25.6152  -38.0094 H   0  0  0  0  0  0  0  0  0  0  0  0
  -13.1776  -25.7543  -35.0654 H   0  0  0  0  0  0  0  0  0  0  0  0
  -12.9729  -26.9819  -36.3184 H   0  0  0  0  0  0  0  0  0  0  0  0
  -11.5514  -24.2689  -36.3546 H   0  0  0  0  0  0  0  0  0  0  0  0
  -11.2449  -25.6347  -37.4306 H   0  0  0  0  0  0  0  0  0  0  0  0
  -10.9402  -25.8801  -34.4006 H   0  0  0  0  0  0  0  0  0  0  0  0
   -9.6308  -25.2828  -35.4234 H   0  0  0  0  0  0  0  0  0  0  0  0
  -11.0452  -27.9839  -35.7338 H   0  0  0  0  0  0  0  0  0  0  0  0
   -9.7525  -27.4089  -36.7809 H   0  0  0  0  0  0  0  0  0  0  0  0
   -9.6371  -28.1818  -33.8465 H   0  0  0  0  0  0  0  0  0  0  0  0
   -8.3423  -27.2313  -34.5653 H   0  0  0  0  0  0  0  0  0  0  0  0
   -8.1147  -29.0932  -36.3394 H   0  0  0  0  0  0  0  0  0  0  0  0
   -9.2273  -30.0541  -35.3614 H   0  0  0  0  0  0  0  0  0  0  0  0
   -6.4802  -28.9774  -34.5396 H   0  0  0  0  0  0  0  0  0  0  0  0
   -7.5732  -29.8014  -33.4134 H   0  0  0  0  0  0  0  0  0  0  0  0
   -4.3954  -32.6951  -36.3260 H   0  0  0  0  0  0  0  0  0  0  0  0
   -5.8955  -33.1746  -35.6071 H   0  0  0  0  0  0  0  0  0  0  0  0
   -7.3041  -31.8111  -34.7126 H   0  0  0  0  0  0  0  0  0  0  0  0
  1 18  1  0  0  0  0
  1 19  1  0  0  0  0
  1 20  2  0  0  0  0
  2  3  1  0  0  0  0
  3  4  1  0  0  0  0
  4  5  1  0  0  0  0
  5  6  1  0  0  0  0
  6  7  1  0  0  0  0
  7  8  1  0  0  0  0
  8  9  1  0  0  0  0
  9 10  1  0  0  0  0
 10 11  1  0  0  0  0
 11 12  1  0  0  0  0
 12 13  1  0  0  0  0
 13 14  1  0  0  0  0
 14 15  1  0  0  0  0
 15 16  1  0  0  0  0
 16 17  1  0  0  0  0
 17 19  1  0  0  0  0
  2 21  1  0  0  0  0
  2 22  1  0  0  0  0
  2 23  1  0  0  0  0
  3 24  1  0  0  0  0
  3 25  1  0  0  0  0
  4 26  1  0  0  0  0
  4 27  1  0  0  0  0
  5 28  1  0  0  0  0
  5 29  1  0  0  0  0
  6 30  1  0  0  0  0
  6 31  1  0  0  0  0
  7 32  1  0  0  0  0
  7 33  1  0  0  0  0
  8 34  1  0  0  0  0
  8 35  1  0  0  0  0
  9 36  1  0  0  0  0
  9 37  1  0  0  0  0
 10 38  1  0  0  0  0
 10 39  1  0  0  0  0
 11 40  1  0  0  0  0
 11 41  1  0  0  0  0
 12 42  1  0  0  0  0
 12 43  1  0  0  0  0
 13 44  1  0  0  0  0
 13 45  1  0  0  0  0
 14 46  1  0  0  0  0
 14 47  1  0  0  0  0
 15 48  1  0  0  0  0
 15 49  1  0  0  0  0
 16 50  1  0  0  0  0
 16 51  1  0  0  0  0
 17 52  1  0  0  0  0
 17 53  1  0  0  0  0
 18 54  1  0  0  0  0
 18 55  1  0  0  0  0
 19 56  1  0  0  0  0
M  END
> <Name>
IA_101.cdx

> <SourceTag>
IA_101

> <Gold.Version>
5.2

> <Gold.Id.Protein>
6HGV|6HGV_protein|mol2

> <Gold.Goldscore.Fitness>
67.7784

> <Gold.Goldscore.Internal.Vdw>
-7.1469

> <Gold.Goldscore.Internal.Torsion>
-3.8517

> <Gold.Goldscore.External.Vdw>
51.3101

> <Gold.Goldscore.Internal.HBond>
0.0000

> <Gold.Goldscore.External.HBond>
1.1707

> <Gold.Goldscore.Internal.Correction>
-7.0549

> <Gold.Goldscore.Hbonds>
donor molecule, donor type, donor heavy atom, donor atom, acceptor molecule, acceptor atom, score
      P1  H  1994  4571       L1    20  0.59

> <Gold.Goldscore.Internal.Vdw.Weighted>
-7.1469

> <Gold.Goldscore.Internal.Torsion.Weighted>
-3.8517

> <Gold.Goldscore.External.Vdw.Weighted>
70.5514

> <Gold.Goldscore.Internal.HBond.Weighted>
0.0000

> <Gold.Goldscore.External.HBond.Weighted>
1.1707

> <Gold.Goldscore.Internal.Correction.Weighted>
-7.0549

> <Gold.Protein.RotatedTorsions>
[ 3781 1176 1175 1172 ] final -155.82 input   60.00 | X-H torsion
[ 3847 1247 1246 1244 ] final  101.56 input   60.00 | X-H torsion
[ 4507 1931 1930 1928 ] final  113.05 input   60.00 | X-H torsion
[ 3677 1070 1069 1066 ] final  -53.69 input   60.00 | X-H torsion
[ 3525  925  924  922 ] final -172.66 input   59.99 | X-H torsion
[ 4531 1957 1955 1953 ] final  115.53 input   60.00 | X-H torsion

> <Gold.Protein.ActiveResidues>
 PHE267  PRO268  MET310  ASP335  TRP336  MET339  TYR343  THR360  PRO361  ILE363
 PRO371  SER374  ILE375  ASN378  PHE381  TYR383  GLN384  PHE387  LEU408  LEU417
 MET419  LEU428  TYR466  MET469  ASN472  ASP496  VAL498  LEU499  MET503  HIS524
 TRP525

> <Gold.Protein.RotatedAtoms>
   -2.3023  -30.2172  -29.3077 H   0  0  0  0  0  0  0  0  0  0  0  0  # atno 3525 bound_to 925
  -12.4044  -23.7992  -31.1134 H   0  0  0  0  0  0  0  0  0  0  0  0  # atno 3677 bound_to 1070
   -9.2507  -36.3711  -33.2223 H   0  0  0  0  0  0  0  0  0  0  0  0  # atno 3781 bound_to 1176
  -14.3901  -28.5494  -37.6374 H   0  0  0  0  0  0  0  0  0  0  0  0  # atno 3847 bound_to 1247
  -12.4341  -23.9960  -39.2622 H   0  0  0  0  0  0  0  0  0  0  0  0  # atno 4507 bound_to 1931
   -2.4481  -34.0274  -36.7931 H   0  0  0  0  0  0  0  0  0  0  0  0  # atno 4531 bound_to 1957
  -10.3308  -37.3564  -32.5076 LP  0  0  0  0  0  0  0  0  0  0  0  0  # atno 5205 bound_to 1176
  -10.5347  -36.9092  -34.0648 LP  0  0  0  0  0  0  0  0  0  0  0  0  # atno 5206 bound_to 1176
  -15.9102  -28.4931  -37.0596 LP  0  0  0  0  0  0  0  0  0  0  0  0  # atno 5215 bound_to 1247
  -15.2698  -27.1913  -37.8089 LP  0  0  0  0  0  0  0  0  0  0  0  0  # atno 5216 bound_to 1247
  -13.3320  -25.3496  -39.1647 LP  0  0  0  0  0  0  0  0  0  0  0  0  # atno 5217 bound_to 1931
  -13.4332  -24.3926  -40.4840 LP  0  0  0  0  0  0  0  0  0  0  0  0  # atno 5218 bound_to 1931
  -11.0851  -22.8533  -31.2263 LP  0  0  0  0  0  0  0  0  0  0  0  0  # atno 5224 bound_to 1070
  -12.3613  -22.3754  -30.3267 LP  0  0  0  0  0  0  0  0  0  0  0  0  # atno 5225 bound_to 1070

$$$$
IA_101.cdx|SeH_inactivess_minimized|sdf|3|dock2
  -GOLD-   4172118213D 1   1.00000     0.00000

 56 55  0  0  0  0  0  0  0  0  1 V2000
   -4.5591  -31.7109  -34.8781 C   0  0  0  0  0  0  0  0  0  0  0  0
  -21.5290  -24.2181  -38.8379 C   0  0  0  0  0  0  0  0  0  0  0  0
  -20.5284  -24.9361  -37.9461 C   0  0  0  0  0  0  0  0  0  0  0  0
  -19.0720  -24.5804  -38.2536 C   0  0  0  0  0  0  0  0  0  0  0  0
  -18.0206  -25.2804  -37.3855 C   0  0  0  0  0  0  0  0  0  0  0  0
  -16.5621  -24.9263  -37.6910 C   0  0  0  0  0  0  0  0  0  0  0  0
  -15.5724  -25.4883  -36.6674 C   0  0  0  0  0  0  0  0  0  0  0  0
  -14.1339  -25.1041  -37.0224 C   0  0  0  0  0  0  0  0  0  0  0  0
  -13.1113  -25.5165  -35.9591 C   0  0  0  0  0  0  0  0  0  0  0  0
  -11.6523  -25.1582  -36.2589 C   0  0  0  0  0  0  0  0  0  0  0  0
  -10.6604  -25.7440  -35.2521 C   0  0  0  0  0  0  0  0  0  0  0  0
  -10.4031  -27.2273  -35.5275 C   0  0  0  0  0  0  0  0  0  0  0  0
   -9.1014  -27.6969  -34.8733 C   0  0  0  0  0  0  0  0  0  0  0  0
   -8.8468  -29.1801  -35.1502 C   0  0  0  0  0  0  0  0  0  0  0  0
   -7.7800  -29.7969  -34.2402 C   0  0  0  0  0  0  0  0  0  0  0  0
   -6.3860  -29.1934  -34.4416 C   0  0  0  0  0  0  0  0  0  0  0  0
   -5.3484  -29.7909  -33.4954 C   0  0  0  0  0  0  0  0  0  0  0  0
   -4.4746  -33.0914  -34.8488 N   0  0  0  0  0  0  0  0  0  0  0  0
   -5.1406  -31.1941  -33.7230 N   0  0  0  0  0  0  0  0  0  0  0  0
   -4.1596  -31.0388  -35.8273 O   0  0  0  0  0  0  0  0  0  0  0  0
  -21.3586  -24.4581  -39.8920 H   0  0  0  0  0  0  0  0  0  0  0  0
  -21.4298  -23.1346  -38.7170 H   0  0  0  0  0  0  0  0  0  0  0  0
  -22.5585  -24.4868  -38.5837 H   0  0  0  0  0  0  0  0  0  0  0  0
  -20.6821  -26.0182  -38.0203 H   0  0  0  0  0  0  0  0  0  0  0  0
  -20.7357  -24.6663  -36.9034 H   0  0  0  0  0  0  0  0  0  0  0  0
  -18.9512  -23.4941  -38.1663 H   0  0  0  0  0  0  0  0  0  0  0  0
  -18.8635  -24.8205  -39.3041 H   0  0  0  0  0  0  0  0  0  0  0  0
  -18.1515  -26.3644  -37.4955 H   0  0  0  0  0  0  0  0  0  0  0  0
  -18.2186  -25.0605  -36.3295 H   0  0  0  0  0  0  0  0  0  0  0  0
  -16.2937  -25.2718  -38.6960 H   0  0  0  0  0  0  0  0  0  0  0  0
  -16.4759  -23.8325  -37.7093 H   0  0  0  0  0  0  0  0  0  0  0  0
  -15.6614  -26.5785  -36.6350 H   0  0  0  0  0  0  0  0  0  0  0  0
  -15.8195  -25.1080  -35.6690 H   0  0  0  0  0  0  0  0  0  0  0  0
  -13.8622  -25.5373  -37.9919 H   0  0  0  0  0  0  0  0  0  0  0  0
  -14.0731  -24.0154  -37.1459 H   0  0  0  0  0  0  0  0  0  0  0  0
  -13.1761  -26.6012  -35.8076 H   0  0  0  0  0  0  0  0  0  0  0  0
  -13.3999  -25.0559  -35.0060 H   0  0  0  0  0  0  0  0  0  0  0  0
  -11.5354  -24.0695  -36.3059 H   0  0  0  0  0  0  0  0  0  0  0  0
  -11.4107  -25.5351  -37.2609 H   0  0  0  0  0  0  0  0  0  0  0  0
   -9.7094  -25.2021  -35.3027 H   0  0  0  0  0  0  0  0  0  0  0  0
  -11.0525  -25.6214  -34.2354 H   0  0  0  0  0  0  0  0  0  0  0  0
  -10.3513  -27.3960  -36.6101 H   0  0  0  0  0  0  0  0  0  0  0  0
  -11.2417  -27.8227  -35.1464 H   0  0  0  0  0  0  0  0  0  0  0  0
   -9.1534  -27.5281  -33.7909 H   0  0  0  0  0  0  0  0  0  0  0  0
   -8.2710  -27.0944  -35.2574 H   0  0  0  0  0  0  0  0  0  0  0  0
   -9.7813  -29.7360  -35.0044 H   0  0  0  0  0  0  0  0  0  0  0  0
   -8.5589  -29.3175  -36.1996 H   0  0  0  0  0  0  0  0  0  0  0  0
   -7.7446  -30.8733  -34.4466 H   0  0  0  0  0  0  0  0  0  0  0  0
   -8.0829  -29.6867  -33.1918 H   0  0  0  0  0  0  0  0  0  0  0  0
   -6.4242  -28.1134  -34.2621 H   0  0  0  0  0  0  0  0  0  0  0  0
   -6.0678  -29.3400  -35.4810 H   0  0  0  0  0  0  0  0  0  0  0  0
   -4.3819  -29.2982  -33.6419 H   0  0  0  0  0  0  0  0  0  0  0  0
   -5.6424  -29.6598  -32.4492 H   0  0  0  0  0  0  0  0  0  0  0  0
   -4.0731  -33.6172  -35.6178 H   0  0  0  0  0  0  0  0  0  0  0  0
   -4.8125  -33.6213  -34.0524 H   0  0  0  0  0  0  0  0  0  0  0  0
   -5.4353  -31.8477  -32.9989 H   0  0  0  0  0  0  0  0  0  0  0  0
  1 18  1  0  0  0  0
  1 19  1  0  0  0  0
  1 20  2  0  0  0  0
  2  3  1  0  0  0  0
  3  4  1  0  0  0  0
  4  5  1  0  0  0  0
  5  6  1  0  0  0  0
  6  7  1  0  0  0  0
  7  8  1  0  0  0  0
  8  9  1  0  0  0  0
  9 10  1  0  0  0  0
 10 11  1  0  0  0  0
 11 12  1  0  0  0  0
 12 13  1  0  0  0  0
 13 14  1  0  0  0  0
 14 15  1  0  0  0  0
 15 16  1  0  0  0  0
 16 17  1  0  0  0  0
 17 19  1  0  0  0  0
  2 21  1  0  0  0  0
  2 22  1  0  0  0  0
  2 23  1  0  0  0  0
  3 24  1  0  0  0  0
  3 25  1  0  0  0  0
  4 26  1  0  0  0  0
  4 27  1  0  0  0  0
  5 28  1  0  0  0  0
  5 29  1  0  0  0  0
  6 30  1  0  0  0  0
  6 31  1  0  0  0  0
  7 32  1  0  0  0  0
  7 33  1  0  0  0  0
  8 34  1  0  0  0  0
  8 35  1  0  0  0  0
  9 36  1  0  0  0  0
  9 37  1  0  0  0  0
 10 38  1  0  0  0  0
 10 39  1  0  0  0  0
 11 40  1  0  0  0  0
 11 41  1  0  0  0  0
 12 42  1  0  0  0  0
 12 43  1  0  0  0  0
 13 44  1  0  0  0  0
 13 45  1  0  0  0  0
 14 46  1  0  0  0  0
 14 47  1  0  0  0  0
 15 48  1  0  0  0  0
 15 49  1  0  0  0  0
 16 50  1  0  0  0  0
 16 51  1  0  0  0  0
 17 52  1  0  0  0  0
 17 53  1  0  0  0  0
 18 54  1  0  0  0  0
 18 55  1  0  0  0  0
 19 56  1  0  0  0  0
M  END
> <Name>
IA_101.cdx

> <SourceTag>
IA_101

> <Gold.Version>
5.2

> <Gold.Id.Protein>
6HGV|6HGV_protein|mol2

> <Gold.Goldscore.Fitness>
67.2970

> <Gold.Goldscore.Internal.Vdw>
-5.8485

> <Gold.Goldscore.Internal.Torsion>
-2.9091

> <Gold.Goldscore.External.Vdw>
48.7270

> <Gold.Goldscore.Internal.HBond>
0.0000

> <Gold.Goldscore.External.HBond>
2.0000

> <Gold.Goldscore.Internal.Correction>
-7.0549

> <Gold.Goldscore.Hbonds>
donor molecule, donor type, donor heavy atom, donor atom, acceptor molecule, acceptor atom, score
      P1  H  1957  4531       L1    20  1.00

> <Gold.Goldscore.Internal.Vdw.Weighted>
-5.8485

> <Gold.Goldscore.Internal.Torsion.Weighted>
-2.9091

> <Gold.Goldscore.External.Vdw.Weighted>
66.9996

> <Gold.Goldscore.Internal.HBond.Weighted>
0.0000

> <Gold.Goldscore.External.HBond.Weighted>
2.0000

> <Gold.Goldscore.Internal.Correction.Weighted>
-7.0549

> <Gold.Protein.RotatedTorsions>
[ 3781 1176 1175 1172 ] final  -95.66 input   60.00 | X-H torsion
[ 3847 1247 1246 1244 ] final  103.64 input   60.00 | X-H torsion
[ 4507 1931 1930 1928 ] final  125.77 input   60.00 | X-H torsion
[ 3677 1070 1069 1066 ] final -111.41 input   60.00 | X-H torsion
[ 3525  925  924  922 ] final   32.93 input   59.99 | X-H torsion
[ 4531 1957 1955 1953 ] final  -10.68 input   60.00 | X-H torsion

> <Gold.Protein.ActiveResidues>
 PHE267  PRO268  MET310  ASP335  TRP336  MET339  TYR343  THR360  PRO361  ILE363
 PRO371  SER374  ILE375  ASN378  PHE381  TYR383  GLN384  PHE387  LEU408  LEU417
 MET419  LEU428  TYR466  MET469  ASN472  ASP496  VAL498  LEU499  MET503  HIS524
 TRP525

> <Gold.Protein.RotatedAtoms>
   -3.2047  -29.6869  -30.8038 H   0  0  0  0  0  0  0  0  0  0  0  0  # atno 3525 bound_to 925
  -11.5743  -23.6640  -31.4445 H   0  0  0  0  0  0  0  0  0  0  0  0  # atno 3677 bound_to 1070
   -9.7468  -36.4039  -34.0183 H   0  0  0  0  0  0  0  0  0  0  0  0  # atno 3781 bound_to 1176
  -14.3773  -28.5221  -37.6529 H   0  0  0  0  0  0  0  0  0  0  0  0  # atno 3847 bound_to 1247
  -12.4623  -23.8895  -39.4380 H   0  0  0  0  0  0  0  0  0  0  0  0  # atno 4507 bound_to 1931
   -2.7299  -32.3834  -36.7111 H   0  0  0  0  0  0  0  0  0  0  0  0  # atno 4531 bound_to 1957
   -9.5381  -36.8433  -32.4654 LP  0  0  0  0  0  0  0  0  0  0  0  0  # atno 5205 bound_to 1176
  -10.8278  -37.3892  -33.3053 LP  0  0  0  0  0  0  0  0  0  0  0  0  # atno 5206 bound_to 1176
  -15.8912  -28.5213  -37.0562 LP  0  0  0  0  0  0  0  0  0  0  0  0  # atno 5215 bound_to 1247
  -15.3016  -27.1906  -37.7967 LP  0  0  0  0  0  0  0  0  0  0  0  0  # atno 5216 bound_to 1247
  -13.1981  -25.2796  -39.0205 LP  0  0  0  0  0  0  0  0  0  0  0  0  # atno 5217 bound_to 1931
  -13.5386  -24.5699  -40.4512 LP  0  0  0  0  0  0  0  0  0  0  0  0  # atno 5218 bound_to 1931
  -11.4659  -22.2295  -30.6839 LP  0  0  0  0  0  0  0  0  0  0  0  0  # atno 5224 bound_to 1070
  -12.8165  -23.1354  -30.5358 LP  0  0  0  0  0  0  0  0  0  0  0  0  # atno 5225 bound_to 1070

$$$$
IA_101.cdx|SeH_inactivess_minimized|sdf|3|dock7
  -GOLD-   4172118233D 1   1.00000     0.00000

 56 55  0  0  0  0  0  0  0  0  1 V2000
  -20.9769  -25.4363  -35.8787 C   0  0  0  0  0  0  0  0  0  0  0  0
   -4.6941  -33.0007  -35.2214 C   0  0  0  0  0  0  0  0  0  0  0  0
   -4.0428  -31.6346  -35.0737 C   0  0  0  0  0  0  0  0  0  0  0  0
   -4.9390  -30.6026  -34.3852 C   0  0  0  0  0  0  0  0  0  0  0  0
   -6.1689  -30.1549  -35.1826 C   0  0  0  0  0  0  0  0  0  0  0  0
   -7.0678  -29.1221  -34.4960 C   0  0  0  0  0  0  0  0  0  0  0  0
   -8.3730  -28.8549  -35.2497 C   0  0  0  0  0  0  0  0  0  0  0  0
   -9.0708  -27.6010  -34.7170 C   0  0  0  0  0  0  0  0  0  0  0  0
  -10.1153  -27.0275  -35.6796 C   0  0  0  0  0  0  0  0  0  0  0  0
  -10.5992  -25.6066  -35.3733 C   0  0  0  0  0  0  0  0  0  0  0  0
  -11.6939  -25.1163  -36.3229 C   0  0  0  0  0  0  0  0  0  0  0  0
  -13.0560  -25.7051  -35.9485 C   0  0  0  0  0  0  0  0  0  0  0  0
  -14.1440  -25.2565  -36.9272 C   0  0  0  0  0  0  0  0  0  0  0  0
  -15.5407  -25.5291  -36.3647 C   0  0  0  0  0  0  0  0  0  0  0  0
  -16.6702  -24.9810  -37.2425 C   0  0  0  0  0  0  0  0  0  0  0  0
  -18.0337  -25.6133  -36.9439 C   0  0  0  0  0  0  0  0  0  0  0  0
  -19.1932  -24.7904  -37.4983 C   0  0  0  0  0  0  0  0  0  0  0  0
  -22.2283  -26.0247  -35.8388 N   0  0  0  0  0  0  0  0  0  0  0  0
  -20.4732  -25.3569  -37.1747 N   0  0  0  0  0  0  0  0  0  0  0  0
  -20.3957  -25.0372  -34.8712 O   0  0  0  0  0  0  0  0  0  0  0  0
   -3.9896  -33.7289  -35.6355 H   0  0  0  0  0  0  0  0  0  0  0  0
   -5.5518  -32.9365  -35.8986 H   0  0  0  0  0  0  0  0  0  0  0  0
   -5.0577  -33.3780  -34.2612 H   0  0  0  0  0  0  0  0  0  0  0  0
   -3.7265  -31.2713  -36.0576 H   0  0  0  0  0  0  0  0  0  0  0  0
   -3.1285  -31.7478  -34.4786 H   0  0  0  0  0  0  0  0  0  0  0  0
   -4.3316  -29.7259  -34.1307 H   0  0  0  0  0  0  0  0  0  0  0  0
   -5.2831  -31.0154  -33.4283 H   0  0  0  0  0  0  0  0  0  0  0  0
   -6.7678  -31.0440  -35.4173 H   0  0  0  0  0  0  0  0  0  0  0  0
   -5.8457  -29.7482  -36.1484 H   0  0  0  0  0  0  0  0  0  0  0  0
   -7.2890  -29.4387  -33.4703 H   0  0  0  0  0  0  0  0  0  0  0  0
   -6.5038  -28.1844  -34.4129 H   0  0  0  0  0  0  0  0  0  0  0  0
   -9.0390  -29.7165  -35.1421 H   0  0  0  0  0  0  0  0  0  0  0  0
   -8.1626  -28.7330  -36.3189 H   0  0  0  0  0  0  0  0  0  0  0  0
   -9.5334  -27.8171  -33.7470 H   0  0  0  0  0  0  0  0  0  0  0  0
   -8.3192  -26.8233  -34.5310 H   0  0  0  0  0  0  0  0  0  0  0  0
  -10.9872  -27.6934  -35.6934 H   0  0  0  0  0  0  0  0  0  0  0  0
   -9.6977  -27.0479  -36.6939 H   0  0  0  0  0  0  0  0  0  0  0  0
   -9.7529  -24.9103  -35.3900 H   0  0  0  0  0  0  0  0  0  0  0  0
  -10.9843  -25.5948  -34.3457 H   0  0  0  0  0  0  0  0  0  0  0  0
  -11.7574  -24.0229  -36.2906 H   0  0  0  0  0  0  0  0  0  0  0  0
  -11.4417  -25.3986  -37.3521 H   0  0  0  0  0  0  0  0  0  0  0  0
  -13.3246  -25.3913  -34.9323 H   0  0  0  0  0  0  0  0  0  0  0  0
  -12.9944  -26.8001  -35.9440 H   0  0  0  0  0  0  0  0  0  0  0  0
  -14.0210  -25.7857  -37.8798 H   0  0  0  0  0  0  0  0  0  0  0  0
  -14.0224  -24.1869  -37.1307 H   0  0  0  0  0  0  0  0  0  0  0  0
  -15.6809  -26.6128  -36.2671 H   0  0  0  0  0  0  0  0  0  0  0  0
  -15.6226  -25.1085  -35.3552 H   0  0  0  0  0  0  0  0  0  0  0  0
  -16.4027  -25.1685  -38.2892 H   0  0  0  0  0  0  0  0  0  0  0  0
  -16.7331  -23.8926  -37.1233 H   0  0  0  0  0  0  0  0  0  0  0  0
  -18.1688  -25.6996  -35.8602 H   0  0  0  0  0  0  0  0  0  0  0  0
  -18.0678  -26.6282  -37.3585 H   0  0  0  0  0  0  0  0  0  0  0  0
  -19.1739  -23.7828  -37.0708 H   0  0  0  0  0  0  0  0  0  0  0  0
  -19.1312  -24.6996  -38.5873 H   0  0  0  0  0  0  0  0  0  0  0  0
  -22.7291  -26.1534  -34.9662 H   0  0  0  0  0  0  0  0  0  0  0  0
  -22.6849  -26.3454  -36.6861 H   0  0  0  0  0  0  0  0  0  0  0  0
  -21.0444  -25.7210  -37.9360 H   0  0  0  0  0  0  0  0  0  0  0  0
  1 18  1  0  0  0  0
  1 19  1  0  0  0  0
  1 20  2  0  0  0  0
  2  3  1  0  0  0  0
  3  4  1  0  0  0  0
  4  5  1  0  0  0  0
  5  6  1  0  0  0  0
  6  7  1  0  0  0  0
  7  8  1  0  0  0  0
  8  9  1  0  0  0  0
  9 10  1  0  0  0  0
 10 11  1  0  0  0  0
 11 12  1  0  0  0  0
 12 13  1  0  0  0  0
 13 14  1  0  0  0  0
 14 15  1  0  0  0  0
 15 16  1  0  0  0  0
 16 17  1  0  0  0  0
 17 19  1  0  0  0  0
  2 21  1  0  0  0  0
  2 22  1  0  0  0  0
  2 23  1  0  0  0  0
  3 24  1  0  0  0  0
  3 25  1  0  0  0  0
  4 26  1  0  0  0  0
  4 27  1  0  0  0  0
  5 28  1  0  0  0  0
  5 29  1  0  0  0  0
  6 30  1  0  0  0  0
  6 31  1  0  0  0  0
  7 32  1  0  0  0  0
  7 33  1  0  0  0  0
  8 34  1  0  0  0  0
  8 35  1  0  0  0  0
  9 36  1  0  0  0  0
  9 37  1  0  0  0  0
 10 38  1  0  0  0  0
 10 39  1  0  0  0  0
 11 40  1  0  0  0  0
 11 41  1  0  0  0  0
 12 42  1  0  0  0  0
 12 43  1  0  0  0  0
 13 44  1  0  0  0  0
 13 45  1  0  0  0  0
 14 46  1  0  0  0  0
 14 47  1  0  0  0  0
 15 48  1  0  0  0  0
 15 49  1  0  0  0  0
 16 50  1  0  0  0  0
 16 51  1  0  0  0  0
 17 52  1  0  0  0  0
 17 53  1  0  0  0  0
 18 54  1  0  0  0  0
 18 55  1  0  0  0  0
 19 56  1  0  0  0  0
M  END
> <Name>
IA_101.cdx

> <SourceTag>
IA_101

> <Gold.Version>
5.2

> <Gold.Id.Protein>
6HGV|6HGV_protein|mol2

> <Gold.Goldscore.Fitness>
66.3279

> <Gold.Goldscore.Internal.Vdw>
-8.0893

> <Gold.Goldscore.Internal.Torsion>
-4.7477

> <Gold.Goldscore.External.Vdw>
53.2002

> <Gold.Goldscore.Internal.HBond>
0.0000

> <Gold.Goldscore.External.HBond>
0.0000

> <Gold.Goldscore.Internal.Correction>
-6.0147

> <Gold.Goldscore.Internal.Vdw.Weighted>
-8.0893

> <Gold.Goldscore.Internal.Torsion.Weighted>
-4.7477

> <Gold.Goldscore.External.Vdw.Weighted>
73.1502

> <Gold.Goldscore.Internal.HBond.Weighted>
0.0000

> <Gold.Goldscore.External.HBond.Weighted>
0.0000

> <Gold.Goldscore.Internal.Correction.Weighted>
-6.0147

> <Gold.Protein.RotatedTorsions>
[ 3781 1176 1175 1172 ] final   13.00 input   60.00 | X-H torsion
[ 3847 1247 1246 1244 ] final  111.35 input   60.00 | X-H torsion
[ 4507 1931 1930 1928 ] final  112.35 input   60.00 | X-H torsion
[ 3677 1070 1069 1066 ] final -118.40 input   60.00 | X-H torsion
[ 3525  925  924  922 ] final   51.28 input   59.99 | X-H torsion
[ 4531 1957 1955 1953 ] final  -86.21 input   60.00 | X-H torsion

> <Gold.Protein.ActiveResidues>
 PHE267  PRO268  MET310  ASP335  TRP336  MET339  TYR343  THR360  PRO361  ILE363
 PRO371  SER374  ILE375  ASN378  PHE381  TYR383  GLN384  PHE387  LEU408  LEU417
 MET419  LEU428  TYR466  MET469  ASN472  ASP496  VAL498  LEU499  MET503  HIS524
 TRP525

> <Gold.Protein.RotatedAtoms>
   -2.9355  -29.7983  -30.8693 H   0  0  0  0  0  0  0  0  0  0  0  0  # atno 3525 bound_to 925
  -11.4829  -23.5959  -31.4507 H   0  0  0  0  0  0  0  0  0  0  0  0  # atno 3677 bound_to 1070
  -10.8291  -37.3275  -33.4804 H   0  0  0  0  0  0  0  0  0  0  0  0  # atno 3781 bound_to 1176
  -14.3392  -28.4156  -37.7085 H   0  0  0  0  0  0  0  0  0  0  0  0  # atno 3847 bound_to 1247
  -12.4334  -24.0027  -39.2531 H   0  0  0  0  0  0  0  0  0  0  0  0  # atno 4507 bound_to 1931
   -1.6034  -32.3993  -36.9256 H   0  0  0  0  0  0  0  0  0  0  0  0  # atno 4531 bound_to 1957
   -9.6053  -36.3460  -33.9128 LP  0  0  0  0  0  0  0  0  0  0  0  0  # atno 5205 bound_to 1176
   -9.6707  -36.9564  -32.3996 LP  0  0  0  0  0  0  0  0  0  0  0  0  # atno 5206 bound_to 1176
  -15.8127  -28.6207  -37.0490 LP  0  0  0  0  0  0  0  0  0  0  0  0  # atno 5215 bound_to 1247
  -15.4185  -27.1984  -37.7478 LP  0  0  0  0  0  0  0  0  0  0  0  0  # atno 5216 bound_to 1247
  -13.3390  -25.3524  -39.1733 LP  0  0  0  0  0  0  0  0  0  0  0  0  # atno 5217 bound_to 1931
  -13.4269  -24.3831  -40.4845 LP  0  0  0  0  0  0  0  0  0  0  0  0  # atno 5218 bound_to 1931
  -11.5569  -22.1979  -30.6211 LP  0  0  0  0  0  0  0  0  0  0  0  0  # atno 5224 bound_to 1070
  -12.8175  -23.2355  -30.5923 LP  0  0  0  0  0  0  0  0  0  0  0  0  # atno 5225 bound_to 1070

$$$$
IA_101.cdx|SeH_inactivess_minimized|sdf|3|dock4
  -GOLD-   4172118223D 1   1.00000     0.00000

 56 55  0  0  0  0  0  0  0  0  1 V2000
   -4.3016  -33.7086  -33.5896 C   0  0  0  0  0  0  0  0  0  0  0  0
  -20.6652  -24.3937  -37.1065 C   0  0  0  0  0  0  0  0  0  0  0  0
  -19.2550  -24.2695  -37.6617 C   0  0  0  0  0  0  0  0  0  0  0  0
  -18.1949  -24.9493  -36.7921 C   0  0  0  0  0  0  0  0  0  0  0  0
  -16.7543  -24.8542  -37.3065 C   0  0  0  0  0  0  0  0  0  0  0  0
  -15.6851  -25.4911  -36.4135 C   0  0  0  0  0  0  0  0  0  0  0  0
  -14.2603  -25.2986  -36.9389 C   0  0  0  0  0  0  0  0  0  0  0  0
  -13.2301  -25.8685  -35.9607 C   0  0  0  0  0  0  0  0  0  0  0  0
  -11.8048  -25.3676  -36.2141 C   0  0  0  0  0  0  0  0  0  0  0  0
  -10.7295  -25.8981  -35.2605 C   0  0  0  0  0  0  0  0  0  0  0  0
  -10.3629  -27.3627  -35.5076 C   0  0  0  0  0  0  0  0  0  0  0  0
   -9.0855  -27.7477  -34.7579 C   0  0  0  0  0  0  0  0  0  0  0  0
   -8.5926  -29.1356  -35.1747 C   0  0  0  0  0  0  0  0  0  0  0  0
   -7.2051  -29.4259  -34.5988 C   0  0  0  0  0  0  0  0  0  0  0  0
   -6.6601  -30.8048  -34.9843 C   0  0  0  0  0  0  0  0  0  0  0  0
   -5.1294  -30.8744  -34.9875 C   0  0  0  0  0  0  0  0  0  0  0  0
   -4.6058  -32.1939  -35.5479 C   0  0  0  0  0  0  0  0  0  0  0  0
   -4.8658  -34.8248  -32.9985 N   0  0  0  0  0  0  0  0  0  0  0  0
   -4.9825  -33.3214  -34.7412 N   0  0  0  0  0  0  0  0  0  0  0  0
   -3.3116  -33.1406  -33.1319 O   0  0  0  0  0  0  0  0  0  0  0  0
  -20.7381  -23.9374  -36.1143 H   0  0  0  0  0  0  0  0  0  0  0  0
  -20.9410  -25.4491  -37.0149 H   0  0  0  0  0  0  0  0  0  0  0  0
  -21.3984  -23.9154  -37.7623 H   0  0  0  0  0  0  0  0  0  0  0  0
  -19.0104  -23.2116  -37.8069 H   0  0  0  0  0  0  0  0  0  0  0  0
  -19.2313  -24.7306  -38.6566 H   0  0  0  0  0  0  0  0  0  0  0  0
  -18.4679  -26.0039  -36.6678 H   0  0  0  0  0  0  0  0  0  0  0  0
  -18.2288  -24.5116  -35.7862 H   0  0  0  0  0  0  0  0  0  0  0  0
  -16.5101  -23.7938  -37.4485 H   0  0  0  0  0  0  0  0  0  0  0  0
  -16.6944  -25.3112  -38.3016 H   0  0  0  0  0  0  0  0  0  0  0  0
  -15.7620  -25.0957  -35.3942 H   0  0  0  0  0  0  0  0  0  0  0  0
  -15.8988  -26.5651  -36.3430 H   0  0  0  0  0  0  0  0  0  0  0  0
  -14.0686  -24.2318  -37.0901 H   0  0  0  0  0  0  0  0  0  0  0  0
  -14.1567  -25.7928  -37.9122 H   0  0  0  0  0  0  0  0  0  0  0  0
  -13.5299  -25.6412  -34.9312 H   0  0  0  0  0  0  0  0  0  0  0  0
  -13.2237  -26.9628  -36.0430 H   0  0  0  0  0  0  0  0  0  0  0  0
  -11.8006  -24.2716  -36.1635 H   0  0  0  0  0  0  0  0  0  0  0  0
  -11.5253  -25.6284  -37.2425 H   0  0  0  0  0  0  0  0  0  0  0  0
  -11.0511  -25.7653  -34.2212 H   0  0  0  0  0  0  0  0  0  0  0  0
   -9.8324  -25.2782  -35.3844 H   0  0  0  0  0  0  0  0  0  0  0  0
  -11.1794  -28.0151  -35.1786 H   0  0  0  0  0  0  0  0  0  0  0  0
  -10.2233  -27.5308  -36.5823 H   0  0  0  0  0  0  0  0  0  0  0  0
   -9.2760  -27.7351  -33.6777 H   0  0  0  0  0  0  0  0  0  0  0  0
   -8.3039  -27.0047  -34.9578 H   0  0  0  0  0  0  0  0  0  0  0  0
   -8.5576  -29.1988  -36.2690 H   0  0  0  0  0  0  0  0  0  0  0  0
   -9.3092  -29.8881  -34.8276 H   0  0  0  0  0  0  0  0  0  0  0  0
   -6.5012  -28.6676  -34.9638 H   0  0  0  0  0  0  0  0  0  0  0  0
   -7.2299  -29.3328  -33.5063 H   0  0  0  0  0  0  0  0  0  0  0  0
   -7.0383  -31.0472  -35.9845 H   0  0  0  0  0  0  0  0  0  0  0  0
   -7.0635  -31.5631  -34.3023 H   0  0  0  0  0  0  0  0  0  0  0  0
   -4.7551  -30.7705  -33.9633 H   0  0  0  0  0  0  0  0  0  0  0  0
   -4.7238  -30.0377  -35.5693 H   0  0  0  0  0  0  0  0  0  0  0  0
   -5.0188  -32.3652  -36.5470 H   0  0  0  0  0  0  0  0  0  0  0  0
   -3.5141  -32.1868  -35.6272 H   0  0  0  0  0  0  0  0  0  0  0  0
   -4.4843  -35.2287  -32.1498 H   0  0  0  0  0  0  0  0  0  0  0  0
   -5.6831  -35.2740  -33.3980 H   0  0  0  0  0  0  0  0  0  0  0  0
   -5.7930  -33.8685  -35.0277 H   0  0  0  0  0  0  0  0  0  0  0  0
  1 18  1  0  0  0  0
  1 19  1  0  0  0  0
  1 20  2  0  0  0  0
  2  3  1  0  0  0  0
  3  4  1  0  0  0  0
  4  5  1  0  0  0  0
  5  6  1  0  0  0  0
  6  7  1  0  0  0  0
  7  8  1  0  0  0  0
  8  9  1  0  0  0  0
  9 10  1  0  0  0  0
 10 11  1  0  0  0  0
 11 12  1  0  0  0  0
 12 13  1  0  0  0  0
 13 14  1  0  0  0  0
 14 15  1  0  0  0  0
 15 16  1  0  0  0  0
 16 17  1  0  0  0  0
 17 19  1  0  0  0  0
  2 21  1  0  0  0  0
  2 22  1  0  0  0  0
  2 23  1  0  0  0  0
  3 24  1  0  0  0  0
  3 25  1  0  0  0  0
  4 26  1  0  0  0  0
  4 27  1  0  0  0  0
  5 28  1  0  0  0  0
  5 29  1  0  0  0  0
  6 30  1  0  0  0  0
  6 31  1  0  0  0  0
  7 32  1  0  0  0  0
  7 33  1  0  0  0  0
  8 34  1  0  0  0  0
  8 35  1  0  0  0  0
  9 36  1  0  0  0  0
  9 37  1  0  0  0  0
 10 38  1  0  0  0  0
 10 39  1  0  0  0  0
 11 40  1  0  0  0  0
 11 41  1  0  0  0  0
 12 42  1  0  0  0  0
 12 43  1  0  0  0  0
 13 44  1  0  0  0  0
 13 45  1  0  0  0  0
 14 46  1  0  0  0  0
 14 47  1  0  0  0  0
 15 48  1  0  0  0  0
 15 49  1  0  0  0  0
 16 50  1  0  0  0  0
 16 51  1  0  0  0  0
 17 52  1  0  0  0  0
 17 53  1  0  0  0  0
 18 54  1  0  0  0  0
 18 55  1  0  0  0  0
 19 56  1  0  0  0  0
M  END
> <Name>
IA_101.cdx

> <SourceTag>
IA_101

> <Gold.Version>
5.2

> <Gold.Id.Protein>
6HGV|6HGV_protein|mol2

> <Gold.Goldscore.Fitness>
66.3010

> <Gold.Goldscore.Internal.Vdw>
-6.0068

> <Gold.Goldscore.Internal.Torsion>
-3.6560

> <Gold.Goldscore.External.Vdw>
50.3952

> <Gold.Goldscore.Internal.HBond>
0.0000

> <Gold.Goldscore.External.HBond>
0.0000

> <Gold.Goldscore.Internal.Correction>
-6.6704

> <Gold.Goldscore.Internal.Vdw.Weighted>
-6.0068

> <Gold.Goldscore.Internal.Torsion.Weighted>
-3.6560

> <Gold.Goldscore.External.Vdw.Weighted>
69.2934

> <Gold.Goldscore.Internal.HBond.Weighted>
0.0000

> <Gold.Goldscore.External.HBond.Weighted>
0.0000

> <Gold.Goldscore.Internal.Correction.Weighted>
-6.6704

> <Gold.Protein.RotatedTorsions>
[ 3781 1176 1175 1172 ] final   89.00 input   60.00 | X-H torsion
[ 3847 1247 1246 1244 ] final   96.93 input   60.00 | X-H torsion
[ 4507 1931 1930 1928 ] final  107.72 input   60.00 | X-H torsion
[ 3677 1070 1069 1066 ] final -112.24 input   60.00 | X-H torsion
[ 3525  925  924  922 ] final   47.51 input   59.99 | X-H torsion
[ 4531 1957 1955 1953 ] final  121.55 input   60.00 | X-H torsion

> <Gold.Protein.ActiveResidues>
 PHE267  PRO268  MET310  ASP335  TRP336  MET339  TYR343  THR360  PRO361  ILE363
 PRO371  SER374  ILE375  ASN378  PHE381  TYR383  GLN384  PHE387  LEU408  LEU417
 MET419  LEU428  TYR466  MET469  ASN472  ASP496  VAL498  LEU499  MET503  HIS524
 TRP525

> <Gold.Protein.RotatedAtoms>
   -2.9919  -29.7743  -30.8635 H   0  0  0  0  0  0  0  0  0  0  0  0  # atno 3525 bound_to 925
  -11.5631  -23.6564  -31.4457 H   0  0  0  0  0  0  0  0  0  0  0  0  # atno 3677 bound_to 1070
  -10.2644  -37.3271  -32.4756 H   0  0  0  0  0  0  0  0  0  0  0  0  # atno 3781 bound_to 1176
  -14.4223  -28.6081  -37.6023 H   0  0  0  0  0  0  0  0  0  0  0  0  # atno 3847 bound_to 1247
  -12.4314  -24.0494  -39.1937 H   0  0  0  0  0  0  0  0  0  0  0  0  # atno 4507 bound_to 1931
   -2.3543  -34.0509  -36.8114 H   0  0  0  0  0  0  0  0  0  0  0  0  # atno 4531 bound_to 1957
  -10.5856  -36.9571  -34.0274 LP  0  0  0  0  0  0  0  0  0  0  0  0  # atno 5205 bound_to 1176
   -9.2592  -36.3457  -33.2969 LP  0  0  0  0  0  0  0  0  0  0  0  0  # atno 5206 bound_to 1176
  -15.9492  -28.4284  -37.0690 LP  0  0  0  0  0  0  0  0  0  0  0  0  # atno 5215 bound_to 1247
  -15.1984  -27.1969  -37.8348 LP  0  0  0  0  0  0  0  0  0  0  0  0  # atno 5216 bound_to 1247
  -13.3845  -25.3678  -39.2323 LP  0  0  0  0  0  0  0  0  0  0  0  0  # atno 5217 bound_to 1931
  -13.3834  -24.3206  -40.4853 LP  0  0  0  0  0  0  0  0  0  0  0  0  # atno 5218 bound_to 1931
  -11.4764  -22.2251  -30.6762 LP  0  0  0  0  0  0  0  0  0  0  0  0  # atno 5224 bound_to 1070
  -12.8173  -23.1474  -30.5422 LP  0  0  0  0  0  0  0  0  0  0  0  0  # atno 5225 bound_to 1070

$$$$
IA_101.cdx|SeH_inactivess_minimized|sdf|3|dock1
  -GOLD-   4172118213D 1   1.00000     0.00000

 56 55  0  0  0  0  0  0  0  0  1 V2000
   -5.3499  -32.5438  -35.3649 C   0  0  0  0  0  0  0  0  0  0  0  0
  -21.1785  -23.6661  -39.8899 C   0  0  0  0  0  0  0  0  0  0  0  0
  -21.1667  -23.4281  -38.3881 C   0  0  0  0  0  0  0  0  0  0  0  0
  -20.2212  -24.3625  -37.6297 C   0  0  0  0  0  0  0  0  0  0  0  0
  -18.7407  -24.2617  -38.0125 C   0  0  0  0  0  0  0  0  0  0  0  0
  -17.7543  -24.9039  -37.0323 C   0  0  0  0  0  0  0  0  0  0  0  0
  -16.2903  -24.7408  -37.4482 C   0  0  0  0  0  0  0  0  0  0  0  0
  -15.3521  -25.4003  -36.4343 C   0  0  0  0  0  0  0  0  0  0  0  0
  -13.8714  -25.2916  -36.8114 C   0  0  0  0  0  0  0  0  0  0  0  0
  -12.8810  -25.9111  -35.8203 C   0  0  0  0  0  0  0  0  0  0  0  0
  -11.4212  -25.5627  -36.1174 C   0  0  0  0  0  0  0  0  0  0  0  0
  -10.4680  -26.3787  -35.2414 C   0  0  0  0  0  0  0  0  0  0  0  0
  -10.4371  -27.8475  -35.6713 C   0  0  0  0  0  0  0  0  0  0  0  0
   -9.2048  -28.5617  -35.1122 C   0  0  0  0  0  0  0  0  0  0  0  0
   -9.1213  -30.0384  -35.5114 C   0  0  0  0  0  0  0  0  0  0  0  0
   -7.8864  -30.7511  -34.9501 C   0  0  0  0  0  0  0  0  0  0  0  0
   -7.8231  -32.2199  -35.3596 C   0  0  0  0  0  0  0  0  0  0  0  0
   -4.3670  -33.3126  -34.7678 N   0  0  0  0  0  0  0  0  0  0  0  0
   -6.6239  -32.8663  -34.9037 N   0  0  0  0  0  0  0  0  0  0  0  0
   -5.1023  -31.6803  -36.2047 O   0  0  0  0  0  0  0  0  0  0  0  0
  -21.9192  -23.0287  -40.3828 H   0  0  0  0  0  0  0  0  0  0  0  0
  -21.4341  -24.7091  -40.1028 H   0  0  0  0  0  0  0  0  0  0  0  0
  -20.1994  -23.4675  -40.3356 H   0  0  0  0  0  0  0  0  0  0  0  0
  -22.1859  -23.5138  -37.9957 H   0  0  0  0  0  0  0  0  0  0  0  0
  -20.8510  -22.3943  -38.2025 H   0  0  0  0  0  0  0  0  0  0  0  0
  -20.5635  -25.3949  -37.7688 H   0  0  0  0  0  0  0  0  0  0  0  0
  -20.3115  -24.1604  -36.5547 H   0  0  0  0  0  0  0  0  0  0  0  0
  -18.4868  -23.1999  -38.1243 H   0  0  0  0  0  0  0  0  0  0  0  0
  -18.5912  -24.7110  -39.0016 H   0  0  0  0  0  0  0  0  0  0  0  0
  -17.9029  -24.4943  -36.0266 H   0  0  0  0  0  0  0  0  0  0  0  0
  -17.9908  -25.9734  -36.9661 H   0  0  0  0  0  0  0  0  0  0  0  0
  -16.0505  -23.6760  -37.5280 H   0  0  0  0  0  0  0  0  0  0  0  0
  -16.1363  -25.1880  -38.4374 H   0  0  0  0  0  0  0  0  0  0  0  0
  -15.5183  -24.9702  -35.4399 H   0  0  0  0  0  0  0  0  0  0  0  0
  -15.6031  -26.4655  -36.3528 H   0  0  0  0  0  0  0  0  0  0  0  0
  -13.6154  -24.2324  -36.9385 H   0  0  0  0  0  0  0  0  0  0  0  0
  -13.7300  -25.7613  -37.7929 H   0  0  0  0  0  0  0  0  0  0  0  0
  -13.0061  -26.9997  -35.7958 H   0  0  0  0  0  0  0  0  0  0  0  0
  -13.1382  -25.5513  -34.8160 H   0  0  0  0  0  0  0  0  0  0  0  0
  -11.1945  -25.7607  -37.1709 H   0  0  0  0  0  0  0  0  0  0  0  0
  -11.2556  -24.4927  -35.9432 H   0  0  0  0  0  0  0  0  0  0  0  0
  -10.7833  -26.3099  -34.1930 H   0  0  0  0  0  0  0  0  0  0  0  0
   -9.4579  -25.9559  -35.3045 H   0  0  0  0  0  0  0  0  0  0  0  0
  -10.4331  -27.9089  -36.7663 H   0  0  0  0  0  0  0  0  0  0  0  0
  -11.3499  -28.3415  -35.3207 H   0  0  0  0  0  0  0  0  0  0  0  0
   -8.3025  -28.0581  -35.4807 H   0  0  0  0  0  0  0  0  0  0  0  0
   -9.1899  -28.4751  -34.0190 H   0  0  0  0  0  0  0  0  0  0  0  0
   -9.1055  -30.0894  -36.6066 H   0  0  0  0  0  0  0  0  0  0  0  0
  -10.0295  -30.5593  -35.1845 H   0  0  0  0  0  0  0  0  0  0  0  0
   -7.9025  -30.7063  -33.8557 H   0  0  0  0  0  0  0  0  0  0  0  0
   -6.9788  -30.2336  -35.2843 H   0  0  0  0  0  0  0  0  0  0  0  0
   -8.6650  -32.7660  -34.9223 H   0  0  0  0  0  0  0  0  0  0  0  0
   -7.8727  -32.3318  -36.4474 H   0  0  0  0  0  0  0  0  0  0  0  0
   -3.3860  -33.1960  -34.9978 H   0  0  0  0  0  0  0  0  0  0  0  0
   -4.5998  -34.0188  -34.0775 H   0  0  0  0  0  0  0  0  0  0  0  0
   -6.7101  -33.6018  -34.2037 H   0  0  0  0  0  0  0  0  0  0  0  0
  1 18  1  0  0  0  0
  1 19  1  0  0  0  0
  1 20  2  0  0  0  0
  2  3  1  0  0  0  0
  3  4  1  0  0  0  0
  4  5  1  0  0  0  0
  5  6  1  0  0  0  0
  6  7  1  0  0  0  0
  7  8  1  0  0  0  0
  8  9  1  0  0  0  0
  9 10  1  0  0  0  0
 10 11  1  0  0  0  0
 11 12  1  0  0  0  0
 12 13  1  0  0  0  0
 13 14  1  0  0  0  0
 14 15  1  0  0  0  0
 15 16  1  0  0  0  0
 16 17  1  0  0  0  0
 17 19  1  0  0  0  0
  2 21  1  0  0  0  0
  2 22  1  0  0  0  0
  2 23  1  0  0  0  0
  3 24  1  0  0  0  0
  3 25  1  0  0  0  0
  4 26  1  0  0  0  0
  4 27  1  0  0  0  0
  5 28  1  0  0  0  0
  5 29  1  0  0  0  0
  6 30  1  0  0  0  0
  6 31  1  0  0  0  0
  7 32  1  0  0  0  0
  7 33  1  0  0  0  0
  8 34  1  0  0  0  0
  8 35  1  0  0  0  0
  9 36  1  0  0  0  0
  9 37  1  0  0  0  0
 10 38  1  0  0  0  0
 10 39  1  0  0  0  0
 11 40  1  0  0  0  0
 11 41  1  0  0  0  0
 12 42  1  0  0  0  0
 12 43  1  0  0  0  0
 13 44  1  0  0  0  0
 13 45  1  0  0  0  0
 14 46  1  0  0  0  0
 14 47  1  0  0  0  0
 15 48  1  0  0  0  0
 15 49  1  0  0  0  0
 16 50  1  0  0  0  0
 16 51  1  0  0  0  0
 17 52  1  0  0  0  0
 17 53  1  0  0  0  0
 18 54  1  0  0  0  0
 18 55  1  0  0  0  0
 19 56  1  0  0  0  0
M  END
> <Name>
IA_101.cdx

> <SourceTag>
IA_101

> <Gold.Version>
5.2

> <Gold.Id.Protein>
6HGV|6HGV_protein|mol2

> <Gold.Goldscore.Fitness>
66.1267

> <Gold.Goldscore.Internal.Vdw>
-6.2705

> <Gold.Goldscore.Internal.Torsion>
-2.5490

> <Gold.Goldscore.External.Vdw>
49.3755

> <Gold.Goldscore.Internal.HBond>
0.0000

> <Gold.Goldscore.External.HBond>
0.0000

> <Gold.Goldscore.Internal.Correction>
-7.0549

> <Gold.Goldscore.Internal.Vdw.Weighted>
-6.2705

> <Gold.Goldscore.Internal.Torsion.Weighted>
-2.5490

> <Gold.Goldscore.External.Vdw.Weighted>
67.8912

> <Gold.Goldscore.Internal.HBond.Weighted>
0.0000

> <Gold.Goldscore.External.HBond.Weighted>
0.0000

> <Gold.Goldscore.Internal.Correction.Weighted>
-7.0549

> <Gold.Protein.RotatedTorsions>
[ 3781 1176 1175 1172 ] final -109.17 input   60.00 | X-H torsion
[ 3847 1247 1246 1244 ] final  106.96 input   60.00 | X-H torsion
[ 4507 1931 1930 1928 ] final  118.12 input   60.00 | X-H torsion
[ 3677 1070 1069 1066 ] final -110.20 input   60.00 | X-H torsion
[ 3525  925  924  922 ] final  -88.18 input   59.99 | X-H torsion
[ 4531 1957 1955 1953 ] final  -59.62 input   60.00 | X-H torsion

> <Gold.Protein.ActiveResidues>
 PHE267  PRO268  MET310  ASP335  TRP336  MET339  TYR343  THR360  PRO361  ILE363
 PRO371  SER374  ILE375  ASN378  PHE381  TYR383  GLN384  PHE387  LEU408  LEU417
 MET419  LEU428  TYR466  MET469  ASN472  ASP496  VAL498  LEU499  MET503  HIS524
 TRP525

> <Gold.Protein.RotatedAtoms>
   -3.4552  -29.7251  -29.1931 H   0  0  0  0  0  0  0  0  0  0  0  0  # atno 3525 bound_to 925
  -11.5908  -23.6748  -31.4426 H   0  0  0  0  0  0  0  0  0  0  0  0  # atno 3677 bound_to 1070
   -9.5820  -36.3439  -33.8850 H   0  0  0  0  0  0  0  0  0  0  0  0  # atno 3781 bound_to 1176
  -14.3591  -28.4771  -37.6772 H   0  0  0  0  0  0  0  0  0  0  0  0  # atno 3847 bound_to 1247
  -12.4417  -23.9498  -39.3306 H   0  0  0  0  0  0  0  0  0  0  0  0  # atno 4507 bound_to 1931
   -1.9855  -32.2155  -36.8498 H   0  0  0  0  0  0  0  0  0  0  0  0  # atno 4531 bound_to 1957
   -9.6979  -36.9779  -32.3908 LP  0  0  0  0  0  0  0  0  0  0  0  0  # atno 5205 bound_to 1176
  -10.8340  -37.3151  -33.5142 LP  0  0  0  0  0  0  0  0  0  0  0  0  # atno 5206 bound_to 1176
  -15.8589  -28.5652  -37.0521 LP  0  0  0  0  0  0  0  0  0  0  0  0  # atno 5215 bound_to 1247
  -15.3523  -27.1920  -37.7763 LP  0  0  0  0  0  0  0  0  0  0  0  0  # atno 5216 bound_to 1247
  -13.2798  -25.3261  -39.1040 LP  0  0  0  0  0  0  0  0  0  0  0  0  # atno 5217 bound_to 1931
  -13.4777  -24.4627  -40.4758 LP  0  0  0  0  0  0  0  0  0  0  0  0  # atno 5218 bound_to 1931
  -11.4508  -22.2362  -30.6951 LP  0  0  0  0  0  0  0  0  0  0  0  0  # atno 5224 bound_to 1070
  -12.8150  -23.1178  -30.5265 LP  0  0  0  0  0  0  0  0  0  0  0  0  # atno 5225 bound_to 1070

$$$$
IA_101.cdx|SeH_inactivess_minimized|sdf|3|dock6
  -GOLD-   4172118223D 1   1.00000     0.00000

 56 55  0  0  0  0  0  0  0  0  1 V2000
  -20.8839  -23.1507  -38.3569 C   0  0  0  0  0  0  0  0  0  0  0  0
   -3.6633  -32.2205  -34.2543 C   0  0  0  0  0  0  0  0  0  0  0  0
   -4.9993  -32.8868  -34.5429 C   0  0  0  0  0  0  0  0  0  0  0  0
   -5.9448  -32.0212  -35.3790 C   0  0  0  0  0  0  0  0  0  0  0  0
   -6.5045  -30.7801  -34.6754 C   0  0  0  0  0  0  0  0  0  0  0  0
   -7.5736  -30.0019  -35.4484 C   0  0  0  0  0  0  0  0  0  0  0  0
   -8.1302  -28.8028  -34.6767 C   0  0  0  0  0  0  0  0  0  0  0  0
   -9.2926  -28.1527  -35.4311 C   0  0  0  0  0  0  0  0  0  0  0  0
   -9.6524  -26.7567  -34.9133 C   0  0  0  0  0  0  0  0  0  0  0  0
  -10.6728  -25.9757  -35.7474 C   0  0  0  0  0  0  0  0  0  0  0  0
  -12.1195  -26.4116  -35.5071 C   0  0  0  0  0  0  0  0  0  0  0  0
  -13.0672  -25.7691  -36.5226 C   0  0  0  0  0  0  0  0  0  0  0  0
  -14.5209  -25.8391  -36.0488 C   0  0  0  0  0  0  0  0  0  0  0  0
  -15.4744  -25.2734  -37.1034 C   0  0  0  0  0  0  0  0  0  0  0  0
  -16.9461  -25.3121  -36.6797 C   0  0  0  0  0  0  0  0  0  0  0  0
  -17.9018  -24.7783  -37.7519 C   0  0  0  0  0  0  0  0  0  0  0  0
  -19.3615  -24.8260  -37.3094 C   0  0  0  0  0  0  0  0  0  0  0  0
  -21.7030  -22.9867  -39.4596 N   0  0  0  0  0  0  0  0  0  0  0  0
  -20.2632  -24.3973  -38.3424 N   0  0  0  0  0  0  0  0  0  0  0  0
  -20.7371  -22.2804  -37.5005 O   0  0  0  0  0  0  0  0  0  0  0  0
   -3.1468  -31.9577  -35.1827 H   0  0  0  0  0  0  0  0  0  0  0  0
   -3.0186  -32.9011  -33.6891 H   0  0  0  0  0  0  0  0  0  0  0  0
   -3.7884  -31.3116  -33.6585 H   0  0  0  0  0  0  0  0  0  0  0  0
   -5.4767  -33.1742  -33.5997 H   0  0  0  0  0  0  0  0  0  0  0  0
   -4.8119  -33.8188  -35.0900 H   0  0  0  0  0  0  0  0  0  0  0  0
   -6.7749  -32.6467  -35.7283 H   0  0  0  0  0  0  0  0  0  0  0  0
   -5.4171  -31.6932  -36.2836 H   0  0  0  0  0  0  0  0  0  0  0  0
   -5.6680  -30.1054  -34.4531 H   0  0  0  0  0  0  0  0  0  0  0  0
   -6.9204  -31.0716  -33.7035 H   0  0  0  0  0  0  0  0  0  0  0  0
   -7.1733  -29.6696  -36.4131 H   0  0  0  0  0  0  0  0  0  0  0  0
   -8.3950  -30.6923  -35.6783 H   0  0  0  0  0  0  0  0  0  0  0  0
   -7.3355  -28.0657  -34.5258 H   0  0  0  0  0  0  0  0  0  0  0  0
   -8.4700  -29.1278  -33.6861 H   0  0  0  0  0  0  0  0  0  0  0  0
   -9.0617  -28.1075  -36.5016 H   0  0  0  0  0  0  0  0  0  0  0  0
  -10.1823  -28.7882  -35.3365 H   0  0  0  0  0  0  0  0  0  0  0  0
   -8.7354  -26.1586  -34.8415 H   0  0  0  0  0  0  0  0  0  0  0  0
  -10.0345  -26.8563  -33.8896 H   0  0  0  0  0  0  0  0  0  0  0  0
  -10.4306  -26.0612  -36.8129 H   0  0  0  0  0  0  0  0  0  0  0  0
  -10.5723  -24.9123  -35.4956 H   0  0  0  0  0  0  0  0  0  0  0  0
  -12.2013  -27.5015  -35.5836 H   0  0  0  0  0  0  0  0  0  0  0  0
  -12.4242  -26.1316  -34.4915 H   0  0  0  0  0  0  0  0  0  0  0  0
  -12.9711  -26.2799  -37.4886 H   0  0  0  0  0  0  0  0  0  0  0  0
  -12.7819  -24.7218  -36.6801 H   0  0  0  0  0  0  0  0  0  0  0  0
  -14.6294  -25.2756  -35.1142 H   0  0  0  0  0  0  0  0  0  0  0  0
  -14.7759  -26.8822  -35.8317 H   0  0  0  0  0  0  0  0  0  0  0  0
  -15.2054  -24.2288  -37.3041 H   0  0  0  0  0  0  0  0  0  0  0  0
  -15.3491  -25.8180  -38.0471 H   0  0  0  0  0  0  0  0  0  0  0  0
  -17.0485  -24.7113  -35.7681 H   0  0  0  0  0  0  0  0  0  0  0  0
  -17.2249  -26.3389  -36.4136 H   0  0  0  0  0  0  0  0  0  0  0  0
  -17.8052  -25.3802  -38.6621 H   0  0  0  0  0  0  0  0  0  0  0  0
  -17.6264  -23.7487  -38.0112 H   0  0  0  0  0  0  0  0  0  0  0  0
  -19.6397  -25.8524  -37.0500 H   0  0  0  0  0  0  0  0  0  0  0  0
  -19.5315  -24.1947  -36.4314 H   0  0  0  0  0  0  0  0  0  0  0  0
  -22.2243  -22.1303  -39.6136 H   0  0  0  0  0  0  0  0  0  0  0  0
  -21.8059  -23.7219  -40.1511 H   0  0  0  0  0  0  0  0  0  0  0  0
  -20.4595  -25.0413  -39.1073 H   0  0  0  0  0  0  0  0  0  0  0  0
  1 18  1  0  0  0  0
  1 19  1  0  0  0  0
  1 20  2  0  0  0  0
  2  3  1  0  0  0  0
  3  4  1  0  0  0  0
  4  5  1  0  0  0  0
  5  6  1  0  0  0  0
  6  7  1  0  0  0  0
  7  8  1  0  0  0  0
  8  9  1  0  0  0  0
  9 10  1  0  0  0  0
 10 11  1  0  0  0  0
 11 12  1  0  0  0  0
 12 13  1  0  0  0  0
 13 14  1  0  0  0  0
 14 15  1  0  0  0  0
 15 16  1  0  0  0  0
 16 17  1  0  0  0  0
 17 19  1  0  0  0  0
  2 21  1  0  0  0  0
  2 22  1  0  0  0  0
  2 23  1  0  0  0  0
  3 24  1  0  0  0  0
  3 25  1  0  0  0  0
  4 26  1  0  0  0  0
  4 27  1  0  0  0  0
  5 28  1  0  0  0  0
  5 29  1  0  0  0  0
  6 30  1  0  0  0  0
  6 31  1  0  0  0  0
  7 32  1  0  0  0  0
  7 33  1  0  0  0  0
  8 34  1  0  0  0  0
  8 35  1  0  0  0  0
  9 36  1  0  0  0  0
  9 37  1  0  0  0  0
 10 38  1  0  0  0  0
 10 39  1  0  0  0  0
 11 40  1  0  0  0  0
 11 41  1  0  0  0  0
 12 42  1  0  0  0  0
 12 43  1  0  0  0  0
 13 44  1  0  0  0  0
 13 45  1  0  0  0  0
 14 46  1  0  0  0  0
 14 47  1  0  0  0  0
 15 48  1  0  0  0  0
 15 49  1  0  0  0  0
 16 50  1  0  0  0  0
 16 51  1  0  0  0  0
 17 52  1  0  0  0  0
 17 53  1  0  0  0  0
 18 54  1  0  0  0  0
 18 55  1  0  0  0  0
 19 56  1  0  0  0  0
M  END
> <Name>
IA_101.cdx

> <SourceTag>
IA_101

> <Gold.Version>
5.2

> <Gold.Id.Protein>
6HGV|6HGV_protein|mol2

> <Gold.Goldscore.Fitness>
66.0507

> <Gold.Goldscore.Internal.Vdw>
-5.5389

> <Gold.Goldscore.Internal.Torsion>
-3.2312

> <Gold.Goldscore.External.Vdw>
50.0408

> <Gold.Goldscore.Internal.HBond>
0.0000

> <Gold.Goldscore.External.HBond>
0.0000

> <Gold.Goldscore.Internal.Correction>
-6.0147

> <Gold.Goldscore.Internal.Vdw.Weighted>
-5.5389

> <Gold.Goldscore.Internal.Torsion.Weighted>
-3.2312

> <Gold.Goldscore.External.Vdw.Weighted>
68.8062

> <Gold.Goldscore.Internal.HBond.Weighted>
0.0000

> <Gold.Goldscore.External.HBond.Weighted>
0.0000

> <Gold.Goldscore.Internal.Correction.Weighted>
-6.0147

> <Gold.Protein.RotatedTorsions>
[ 3781 1176 1175 1172 ] final   25.01 input   60.00 | X-H torsion
[ 3847 1247 1246 1244 ] final   99.70 input   60.00 | X-H torsion
[ 4507 1931 1930 1928 ] final  125.38 input   60.00 | X-H torsion
[ 3677 1070 1069 1066 ] final -104.22 input   60.00 | X-H torsion
[ 3525  925  924  922 ] final   24.12 input   59.99 | X-H torsion
[ 4531 1957 1955 1953 ] final  126.50 input   60.00 | X-H torsion

> <Gold.Protein.ActiveResidues>
 PHE267  PRO268  MET310  ASP335  TRP336  MET339  TYR343  THR360  PRO361  ILE363
 PRO371  SER374  ILE375  ASN378  PHE381  TYR383  GLN384  PHE387  LEU408  LEU417
 MET419  LEU428  TYR466  MET469  ASN472  ASP496  VAL498  LEU499  MET503  HIS524
 TRP525

> <Gold.Protein.RotatedAtoms>
   -3.3250  -29.6403  -30.7403 H   0  0  0  0  0  0  0  0  0  0  0  0  # atno 3525 bound_to 925
  -11.6742  -23.7239  -31.4295 H   0  0  0  0  0  0  0  0  0  0  0  0  # atno 3677 bound_to 1070
  -10.8196  -37.3905  -33.2953 H   0  0  0  0  0  0  0  0  0  0  0  0  # atno 3781 bound_to 1176
  -14.4024  -28.5735  -37.6233 H   0  0  0  0  0  0  0  0  0  0  0  0  # atno 3847 bound_to 1247
  -12.4610  -23.8923  -39.4324 H   0  0  0  0  0  0  0  0  0  0  0  0  # atno 4507 bound_to 1931
   -2.2758  -34.0626  -36.8265 H   0  0  0  0  0  0  0  0  0  0  0  0  # atno 4531 bound_to 1957
   -9.7547  -36.4023  -34.0285 LP  0  0  0  0  0  0  0  0  0  0  0  0  # atno 5205 bound_to 1176
   -9.5309  -36.8367  -32.4703 LP  0  0  0  0  0  0  0  0  0  0  0  0  # atno 5206 bound_to 1176
  -15.9265  -28.4673  -37.0630 LP  0  0  0  0  0  0  0  0  0  0  0  0  # atno 5215 bound_to 1247
  -15.2411  -27.1928  -37.8196 LP  0  0  0  0  0  0  0  0  0  0  0  0  # atno 5216 bound_to 1247
  -13.2023  -25.2823  -39.0245 LP  0  0  0  0  0  0  0  0  0  0  0  0  # atno 5217 bound_to 1931
  -13.5357  -24.5644  -40.4528 LP  0  0  0  0  0  0  0  0  0  0  0  0  # atno 5218 bound_to 1931
  -11.3798  -22.2741  -30.7516 LP  0  0  0  0  0  0  0  0  0  0  0  0  # atno 5224 bound_to 1070
  -12.8020  -23.0305  -30.4832 LP  0  0  0  0  0  0  0  0  0  0  0  0  # atno 5225 bound_to 1070

$$$$
IA_101.cdx|SeH_inactivess_minimized|sdf|3|dock9
  -GOLD-   4172118233D 1   1.00000     0.00000

 56 55  0  0  0  0  0  0  0  0  1 V2000
  -20.6667  -23.2090  -38.2442 C   0  0  0  0  0  0  0  0  0  0  0  0
   -3.5661  -32.3230  -34.1971 C   0  0  0  0  0  0  0  0  0  0  0  0
   -4.7664  -33.0073  -34.8321 C   0  0  0  0  0  0  0  0  0  0  0  0
   -5.7031  -32.0423  -35.5625 C   0  0  0  0  0  0  0  0  0  0  0  0
   -6.3868  -30.9890  -34.6840 C   0  0  0  0  0  0  0  0  0  0  0  0
   -7.3249  -30.0217  -35.4124 C   0  0  0  0  0  0  0  0  0  0  0  0
   -7.8466  -28.8926  -34.5202 C   0  0  0  0  0  0  0  0  0  0  0  0
   -8.9849  -28.1308  -35.2036 C   0  0  0  0  0  0  0  0  0  0  0  0
   -9.2803  -26.7707  -34.5637 C   0  0  0  0  0  0  0  0  0  0  0  0
  -10.2597  -25.8715  -35.3246 C   0  0  0  0  0  0  0  0  0  0  0  0
  -11.7169  -26.3244  -35.2136 C   0  0  0  0  0  0  0  0  0  0  0  0
  -12.6233  -25.5034  -36.1335 C   0  0  0  0  0  0  0  0  0  0  0  0
  -14.0819  -25.9545  -36.0244 C   0  0  0  0  0  0  0  0  0  0  0  0
  -14.9585  -25.2480  -37.0607 C   0  0  0  0  0  0  0  0  0  0  0  0
  -16.4504  -25.2669  -36.7133 C   0  0  0  0  0  0  0  0  0  0  0  0
  -17.3350  -24.6410  -37.7967 C   0  0  0  0  0  0  0  0  0  0  0  0
  -18.8162  -24.6703  -37.4305 C   0  0  0  0  0  0  0  0  0  0  0  0
  -21.3194  -22.8533  -39.4109 N   0  0  0  0  0  0  0  0  0  0  0  0
  -19.6500  -24.1336  -38.4701 N   0  0  0  0  0  0  0  0  0  0  0  0
  -20.9683  -22.7480  -37.1447 O   0  0  0  0  0  0  0  0  0  0  0  0
   -3.0255  -31.7173  -34.9312 H   0  0  0  0  0  0  0  0  0  0  0  0
   -2.8733  -33.0721  -33.8003 H   0  0  0  0  0  0  0  0  0  0  0  0
   -3.8652  -31.6761  -33.3673 H   0  0  0  0  0  0  0  0  0  0  0  0
   -5.3149  -33.5684  -34.0676 H   0  0  0  0  0  0  0  0  0  0  0  0
   -4.4023  -33.7471  -35.5554 H   0  0  0  0  0  0  0  0  0  0  0  0
   -6.4660  -32.6271  -36.0899 H   0  0  0  0  0  0  0  0  0  0  0  0
   -5.1346  -31.5205  -36.3430 H   0  0  0  0  0  0  0  0  0  0  0  0
   -5.6072  -30.4086  -34.1746 H   0  0  0  0  0  0  0  0  0  0  0  0
   -6.9526  -31.4916  -33.8904 H   0  0  0  0  0  0  0  0  0  0  0  0
   -6.8224  -29.5998  -36.2903 H   0  0  0  0  0  0  0  0  0  0  0  0
   -8.1765  -30.5990  -35.7942 H   0  0  0  0  0  0  0  0  0  0  0  0
   -7.0297  -28.2009  -34.2927 H   0  0  0  0  0  0  0  0  0  0  0  0
   -8.2005  -29.3082  -33.5692 H   0  0  0  0  0  0  0  0  0  0  0  0
   -8.7595  -28.0030  -36.2686 H   0  0  0  0  0  0  0  0  0  0  0  0
   -9.9006  -28.7336  -35.1548 H   0  0  0  0  0  0  0  0  0  0  0  0
   -8.3364  -26.2254  -34.4396 H   0  0  0  0  0  0  0  0  0  0  0  0
   -9.6704  -26.9426  -33.5527 H   0  0  0  0  0  0  0  0  0  0  0  0
   -9.9691  -25.8084  -36.3795 H   0  0  0  0  0  0  0  0  0  0  0  0
  -10.1686  -24.8550  -34.9212 H   0  0  0  0  0  0  0  0  0  0  0  0
  -11.8027  -27.3834  -35.4815 H   0  0  0  0  0  0  0  0  0  0  0  0
  -12.0561  -26.2215  -34.1758 H   0  0  0  0  0  0  0  0  0  0  0  0
  -12.2838  -25.6073  -37.1714 H   0  0  0  0  0  0  0  0  0  0  0  0
  -12.5466  -24.4409  -35.8724 H   0  0  0  0  0  0  0  0  0  0  0  0
  -14.4576  -25.7399  -35.0167 H   0  0  0  0  0  0  0  0  0  0  0  0
  -14.1317  -27.0396  -36.1664 H   0  0  0  0  0  0  0  0  0  0  0  0
  -14.6413  -24.2009  -37.1421 H   0  0  0  0  0  0  0  0  0  0  0  0
  -14.8051  -25.7014  -38.0474 H   0  0  0  0  0  0  0  0  0  0  0  0
  -16.5828  -24.7188  -35.7728 H   0  0  0  0  0  0  0  0  0  0  0  0
  -16.7707  -26.2987  -36.5247 H   0  0  0  0  0  0  0  0  0  0  0  0
  -17.2086  -25.1901  -38.7362 H   0  0  0  0  0  0  0  0  0  0  0  0
  -17.0184  -23.6066  -37.9786 H   0  0  0  0  0  0  0  0  0  0  0  0
  -19.1394  -25.7029  -37.2646 H   0  0  0  0  0  0  0  0  0  0  0  0
  -19.0109  -24.1013  -36.5159 H   0  0  0  0  0  0  0  0  0  0  0  0
  -22.0842  -22.1871  -39.4118 H   0  0  0  0  0  0  0  0  0  0  0  0
  -21.0497  -23.2497  -40.3051 H   0  0  0  0  0  0  0  0  0  0  0  0
  -19.4884  -24.4468  -39.4262 H   0  0  0  0  0  0  0  0  0  0  0  0
  1 18  1  0  0  0  0
  1 19  1  0  0  0  0
  1 20  2  0  0  0  0
  2  3  1  0  0  0  0
  3  4  1  0  0  0  0
  4  5  1  0  0  0  0
  5  6  1  0  0  0  0
  6  7  1  0  0  0  0
  7  8  1  0  0  0  0
  8  9  1  0  0  0  0
  9 10  1  0  0  0  0
 10 11  1  0  0  0  0
 11 12  1  0  0  0  0
 12 13  1  0  0  0  0
 13 14  1  0  0  0  0
 14 15  1  0  0  0  0
 15 16  1  0  0  0  0
 16 17  1  0  0  0  0
 17 19  1  0  0  0  0
  2 21  1  0  0  0  0
  2 22  1  0  0  0  0
  2 23  1  0  0  0  0
  3 24  1  0  0  0  0
  3 25  1  0  0  0  0
  4 26  1  0  0  0  0
  4 27  1  0  0  0  0
  5 28  1  0  0  0  0
  5 29  1  0  0  0  0
  6 30  1  0  0  0  0
  6 31  1  0  0  0  0
  7 32  1  0  0  0  0
  7 33  1  0  0  0  0
  8 34  1  0  0  0  0
  8 35  1  0  0  0  0
  9 36  1  0  0  0  0
  9 37  1  0  0  0  0
 10 38  1  0  0  0  0
 10 39  1  0  0  0  0
 11 40  1  0  0  0  0
 11 41  1  0  0  0  0
 12 42  1  0  0  0  0
 12 43  1  0  0  0  0
 13 44  1  0  0  0  0
 13 45  1  0  0  0  0
 14 46  1  0  0  0  0
 14 47  1  0  0  0  0
 15 48  1  0  0  0  0
 15 49  1  0  0  0  0
 16 50  1  0  0  0  0
 16 51  1  0  0  0  0
 17 52  1  0  0  0  0
 17 53  1  0  0  0  0
 18 54  1  0  0  0  0
 18 55  1  0  0  0  0
 19 56  1  0  0  0  0
M  END
> <Name>
IA_101.cdx

> <SourceTag>
IA_101

> <Gold.Version>
5.2

> <Gold.Id.Protein>
6HGV|6HGV_protein|mol2

> <Gold.Goldscore.Fitness>
64.6245

> <Gold.Goldscore.Internal.Vdw>
-6.1739

> <Gold.Goldscore.Internal.Torsion>
-3.3131

> <Gold.Goldscore.External.Vdw>
49.5250

> <Gold.Goldscore.Internal.HBond>
0.0000

> <Gold.Goldscore.External.HBond>
0.0000

> <Gold.Goldscore.Internal.Correction>
-6.0147

> <Gold.Goldscore.Internal.Vdw.Weighted>
-6.1739

> <Gold.Goldscore.Internal.Torsion.Weighted>
-3.3131

> <Gold.Goldscore.External.Vdw.Weighted>
68.0969

> <Gold.Goldscore.Internal.HBond.Weighted>
0.0000

> <Gold.Goldscore.External.HBond.Weighted>
0.0000

> <Gold.Goldscore.Internal.Correction.Weighted>
-6.0147

> <Gold.Protein.RotatedTorsions>
[ 3781 1176 1175 1172 ] final   39.25 input   60.00 | X-H torsion
[ 3847 1247 1246 1244 ] final   -4.13 input   60.00 | X-H torsion
[ 4507 1931 1930 1928 ] final   91.83 input   60.00 | X-H torsion
[ 3677 1070 1069 1066 ] final -101.85 input   60.00 | X-H torsion
[ 3525  925  924  922 ] final   66.50 input   59.99 | X-H torsion
[ 4531 1957 1955 1953 ] final  120.65 input   60.00 | X-H torsion

> <Gold.Protein.ActiveResidues>
 PHE267  PRO268  MET310  ASP335  TRP336  MET339  TYR343  THR360  PRO361  ILE363
 PRO371  SER374  ILE375  ASN378  PHE381  TYR383  GLN384  PHE387  LEU408  LEU417
 MET419  LEU428  TYR466  MET469  ASN472  ASP496  VAL498  LEU499  MET503  HIS524
 TRP525

> <Gold.Protein.RotatedAtoms>
   -2.7093  -29.8985  -30.8518 H   0  0  0  0  0  0  0  0  0  0  0  0  # atno 3525 bound_to 925
  -11.7083  -23.7412  -31.4227 H   0  0  0  0  0  0  0  0  0  0  0  0  # atno 3677 bound_to 1070
  -10.7640  -37.4360  -33.0746 H   0  0  0  0  0  0  0  0  0  0  0  0  # atno 3781 bound_to 1176
  -15.7582  -28.6711  -37.0539 H   0  0  0  0  0  0  0  0  0  0  0  0  # atno 3847 bound_to 1247
  -12.4558  -24.2340  -39.0140 H   0  0  0  0  0  0  0  0  0  0  0  0  # atno 4507 bound_to 1931
   -2.3684  -34.0480  -36.8086 H   0  0  0  0  0  0  0  0  0  0  0  0  # atno 4531 bound_to 1957
   -9.9474  -36.4958  -34.1221 LP  0  0  0  0  0  0  0  0  0  0  0  0  # atno 5205 bound_to 1176
   -9.3942  -36.6973  -32.5990 LP  0  0  0  0  0  0  0  0  0  0  0  0  # atno 5206 bound_to 1176
  -15.4851  -27.2104  -37.7171 LP  0  0  0  0  0  0  0  0  0  0  0  0  # atno 5215 bound_to 1247
  -14.3172  -28.3515  -37.7390 LP  0  0  0  0  0  0  0  0  0  0  0  0  # atno 5216 bound_to 1247
  -13.5232  -25.3813  -39.4526 LP  0  0  0  0  0  0  0  0  0  0  0  0  # atno 5217 bound_to 1931
  -13.2201  -24.1212  -40.4461 LP  0  0  0  0  0  0  0  0  0  0  0  0  # atno 5218 bound_to 1931
  -11.3533  -22.2914  -30.7745 LP  0  0  0  0  0  0  0  0  0  0  0  0  # atno 5224 bound_to 1070
  -12.7942  -22.9957  -30.4671 LP  0  0  0  0  0  0  0  0  0  0  0  0  # atno 5225 bound_to 1070

$$$$
IA_101.cdx|SeH_inactivess_minimized|sdf|3|dock10
  -GOLD-   4172118243D 1   1.00000     0.00000

 56 55  0  0  0  0  0  0  0  0  1 V2000
   -5.1002  -33.6832  -34.6175 C   0  0  0  0  0  0  0  0  0  0  0  0
  -20.5935  -23.9326  -39.1933 C   0  0  0  0  0  0  0  0  0  0  0  0
  -20.5884  -23.7264  -37.6868 C   0  0  0  0  0  0  0  0  0  0  0  0
  -19.5997  -24.6331  -36.9502 C   0  0  0  0  0  0  0  0  0  0  0  0
  -18.1203  -24.4094  -37.2822 C   0  0  0  0  0  0  0  0  0  0  0  0
  -17.1285  -25.3155  -36.5465 C   0  0  0  0  0  0  0  0  0  0  0  0
  -15.6695  -25.0604  -36.9329 C   0  0  0  0  0  0  0  0  0  0  0  0
  -14.7118  -25.7023  -35.9260 C   0  0  0  0  0  0  0  0  0  0  0  0
  -13.2435  -25.6481  -36.3591 C   0  0  0  0  0  0  0  0  0  0  0  0
  -12.2470  -26.3577  -35.4370 C   0  0  0  0  0  0  0  0  0  0  0  0
  -10.7844  -26.0958  -35.8017 C   0  0  0  0  0  0  0  0  0  0  0  0
   -9.8421  -26.9752  -34.9765 C   0  0  0  0  0  0  0  0  0  0  0  0
   -9.8312  -28.4161  -35.4928 C   0  0  0  0  0  0  0  0  0  0  0  0
   -8.6720  -29.2114  -34.8886 C   0  0  0  0  0  0  0  0  0  0  0  0
   -8.6113  -30.6642  -35.3709 C   0  0  0  0  0  0  0  0  0  0  0  0
   -7.3407  -31.3986  -34.9299 C   0  0  0  0  0  0  0  0  0  0  0  0
   -7.3474  -32.8707  -35.3325 C   0  0  0  0  0  0  0  0  0  0  0  0
   -4.5084  -34.5373  -33.7042 N   0  0  0  0  0  0  0  0  0  0  0  0
   -6.4882  -33.6707  -34.5044 N   0  0  0  0  0  0  0  0  0  0  0  0
   -4.4532  -33.0212  -35.4271 O   0  0  0  0  0  0  0  0  0  0  0  0
  -21.4133  -23.3797  -39.6626 H   0  0  0  0  0  0  0  0  0  0  0  0
  -20.7240  -24.9942  -39.4265 H   0  0  0  0  0  0  0  0  0  0  0  0
  -19.6525  -23.6072  -39.6462 H   0  0  0  0  0  0  0  0  0  0  0  0
  -21.6016  -23.8664  -37.2945 H   0  0  0  0  0  0  0  0  0  0  0  0
  -20.3191  -22.6836  -37.4795 H   0  0  0  0  0  0  0  0  0  0  0  0
  -19.8643  -25.6776  -37.1536 H   0  0  0  0  0  0  0  0  0  0  0  0
  -19.7324  -24.4967  -35.8693 H   0  0  0  0  0  0  0  0  0  0  0  0
  -17.8737  -23.3631  -37.0616 H   0  0  0  0  0  0  0  0  0  0  0  0
  -17.9692  -24.5315  -38.3615 H   0  0  0  0  0  0  0  0  0  0  0  0
  -17.2507  -25.2054  -35.4629 H   0  0  0  0  0  0  0  0  0  0  0  0
  -17.3838  -26.3569  -36.7799 H   0  0  0  0  0  0  0  0  0  0  0  0
  -15.4865  -23.9822  -36.9739 H   0  0  0  0  0  0  0  0  0  0  0  0
  -15.4772  -25.4652  -37.9336 H   0  0  0  0  0  0  0  0  0  0  0  0
  -14.8312  -25.2278  -34.9451 H   0  0  0  0  0  0  0  0  0  0  0  0
  -14.9861  -26.7563  -35.7913 H   0  0  0  0  0  0  0  0  0  0  0  0
  -12.9404  -24.5977  -36.4516 H   0  0  0  0  0  0  0  0  0  0  0  0
  -13.1643  -26.0800  -37.3646 H   0  0  0  0  0  0  0  0  0  0  0  0
  -12.4420  -27.4362  -35.4329 H   0  0  0  0  0  0  0  0  0  0  0  0
  -12.4285  -26.0104  -34.4120 H   0  0  0  0  0  0  0  0  0  0  0  0
  -10.6203  -26.2986  -36.8659 H   0  0  0  0  0  0  0  0  0  0  0  0
  -10.5459  -25.0393  -35.6300 H   0  0  0  0  0  0  0  0  0  0  0  0
  -10.1563  -26.9644  -33.9256 H   0  0  0  0  0  0  0  0  0  0  0  0
   -8.8265  -26.5630  -35.0154 H   0  0  0  0  0  0  0  0  0  0  0  0
   -9.7452  -28.4131  -36.5861 H   0  0  0  0  0  0  0  0  0  0  0  0
  -10.7854  -28.8924  -35.2424 H   0  0  0  0  0  0  0  0  0  0  0  0
   -7.7264  -28.7240  -35.1570 H   0  0  0  0  0  0  0  0  0  0  0  0
   -8.7380  -29.1899  -33.7941 H   0  0  0  0  0  0  0  0  0  0  0  0
   -8.6667  -30.6567  -36.4660 H   0  0  0  0  0  0  0  0  0  0  0  0
   -9.4950  -31.2070  -35.0141 H   0  0  0  0  0  0  0  0  0  0  0  0
   -7.2468  -31.3473  -33.8397 H   0  0  0  0  0  0  0  0  0  0  0  0
   -6.4610  -30.9016  -35.3568 H   0  0  0  0  0  0  0  0  0  0  0  0
   -8.3576  -33.2805  -35.2324 H   0  0  0  0  0  0  0  0  0  0  0  0
   -7.0288  -33.0001  -36.3716 H   0  0  0  0  0  0  0  0  0  0  0  0
   -3.5020  -34.6560  -33.6601 H   0  0  0  0  0  0  0  0  0  0  0  0
   -5.0668  -35.0721  -33.0473 H   0  0  0  0  0  0  0  0  0  0  0  0
   -6.9184  -34.2620  -33.7947 H   0  0  0  0  0  0  0  0  0  0  0  0
  1 18  1  0  0  0  0
  1 19  1  0  0  0  0
  1 20  2  0  0  0  0
  2  3  1  0  0  0  0
  3  4  1  0  0  0  0
  4  5  1  0  0  0  0
  5  6  1  0  0  0  0
  6  7  1  0  0  0  0
  7  8  1  0  0  0  0
  8  9  1  0  0  0  0
  9 10  1  0  0  0  0
 10 11  1  0  0  0  0
 11 12  1  0  0  0  0
 12 13  1  0  0  0  0
 13 14  1  0  0  0  0
 14 15  1  0  0  0  0
 15 16  1  0  0  0  0
 16 17  1  0  0  0  0
 17 19  1  0  0  0  0
  2 21  1  0  0  0  0
  2 22  1  0  0  0  0
  2 23  1  0  0  0  0
  3 24  1  0  0  0  0
  3 25  1  0  0  0  0
  4 26  1  0  0  0  0
  4 27  1  0  0  0  0
  5 28  1  0  0  0  0
  5 29  1  0  0  0  0
  6 30  1  0  0  0  0
  6 31  1  0  0  0  0
  7 32  1  0  0  0  0
  7 33  1  0  0  0  0
  8 34  1  0  0  0  0
  8 35  1  0  0  0  0
  9 36  1  0  0  0  0
  9 37  1  0  0  0  0
 10 38  1  0  0  0  0
 10 39  1  0  0  0  0
 11 40  1  0  0  0  0
 11 41  1  0  0  0  0
 12 42  1  0  0  0  0
 12 43  1  0  0  0  0
 13 44  1  0  0  0  0
 13 45  1  0  0  0  0
 14 46  1  0  0  0  0
 14 47  1  0  0  0  0
 15 48  1  0  0  0  0
 15 49  1  0  0  0  0
 16 50  1  0  0  0  0
 16 51  1  0  0  0  0
 17 52  1  0  0  0  0
 17 53  1  0  0  0  0
 18 54  1  0  0  0  0
 18 55  1  0  0  0  0
 19 56  1  0  0  0  0
M  END
> <Name>
IA_101.cdx

> <SourceTag>
IA_101

> <Gold.Version>
5.2

> <Gold.Id.Protein>
6HGV|6HGV_protein|mol2

> <Gold.Goldscore.Fitness>
64.4654

> <Gold.Goldscore.Internal.Vdw>
-6.7514

> <Gold.Goldscore.Internal.Torsion>
-3.7205

> <Gold.Goldscore.External.Vdw>
48.6771

> <Gold.Goldscore.Internal.HBond>
0.0000

> <Gold.Goldscore.External.HBond>
1.9916

> <Gold.Goldscore.Internal.Correction>
-6.0147

> <Gold.Goldscore.Hbonds>
donor molecule, donor type, donor heavy atom, donor atom, acceptor molecule, acceptor atom, score
      P1  H  1957  4531       L1    20  1.00

> <Gold.Goldscore.Internal.Vdw.Weighted>
-6.7514

> <Gold.Goldscore.Internal.Torsion.Weighted>
-3.7205

> <Gold.Goldscore.External.Vdw.Weighted>
66.9310

> <Gold.Goldscore.Internal.HBond.Weighted>
0.0000

> <Gold.Goldscore.External.HBond.Weighted>
1.9916

> <Gold.Goldscore.Internal.Correction.Weighted>
-6.0147

> <Gold.Protein.RotatedTorsions>
[ 3781 1176 1175 1172 ] final -116.02 input   60.00 | X-H torsion
[ 3847 1247 1246 1244 ] final  107.65 input   60.00 | X-H torsion
[ 4507 1931 1930 1928 ] final   84.84 input   60.00 | X-H torsion
[ 3677 1070 1069 1066 ] final -100.10 input   60.00 | X-H torsion
[ 3525  925  924  922 ] final -166.21 input   59.99 | X-H torsion
[ 4531 1957 1955 1953 ] final   36.82 input   60.00 | X-H torsion

> <Gold.Protein.ActiveResidues>
 PHE267  PRO268  MET310  ASP335  TRP336  MET339  TYR343  THR360  PRO361  ILE363
 PRO371  SER374  ILE375  ASN378  PHE381  TYR383  GLN384  PHE387  LEU408  LEU417
 MET419  LEU428  TYR466  MET469  ASN472  ASP496  VAL498  LEU499  MET503  HIS524
 TRP525

> <Gold.Protein.RotatedAtoms>
   -2.3740  -30.1927  -29.2344 H   0  0  0  0  0  0  0  0  0  0  0  0  # atno 3525 bound_to 925
  -11.7335  -23.7532  -31.4171 H   0  0  0  0  0  0  0  0  0  0  0  0  # atno 3677 bound_to 1070
   -9.5076  -36.3247  -33.8038 H   0  0  0  0  0  0  0  0  0  0  0  0  # atno 3781 bound_to 1176
  -14.3556  -28.4676  -37.6822 H   0  0  0  0  0  0  0  0  0  0  0  0  # atno 3847 bound_to 1247
  -12.4814  -24.3245  -38.9493 H   0  0  0  0  0  0  0  0  0  0  0  0  # atno 4507 bound_to 1931
   -3.0944  -33.0412  -36.6532 H   0  0  0  0  0  0  0  0  0  0  0  0  # atno 4531 bound_to 1957
   -9.7866  -37.0444  -32.3712 LP  0  0  0  0  0  0  0  0  0  0  0  0  # atno 5205 bound_to 1176
  -10.8202  -37.2679  -33.6155 LP  0  0  0  0  0  0  0  0  0  0  0  0  # atno 5206 bound_to 1176
  -15.8519  -28.5741  -37.0515 LP  0  0  0  0  0  0  0  0  0  0  0  0  # atno 5215 bound_to 1247
  -15.3628  -27.1927  -37.7719 LP  0  0  0  0  0  0  0  0  0  0  0  0  # atno 5216 bound_to 1247
  -13.5737  -25.3676  -39.5550 LP  0  0  0  0  0  0  0  0  0  0  0  0  # atno 5217 bound_to 1931
  -13.1438  -24.0438  -40.4089 LP  0  0  0  0  0  0  0  0  0  0  0  0  # atno 5218 bound_to 1931
  -11.3345  -22.3049  -30.7914 LP  0  0  0  0  0  0  0  0  0  0  0  0  # atno 5224 bound_to 1070
  -12.7876  -22.9702  -30.4559 LP  0  0  0  0  0  0  0  0  0  0  0  0  # atno 5225 bound_to 1070

$$$$
IA_101.cdx|SeH_inactivess_minimized|sdf|3|dock8
  -GOLD-   4172118233D 1   1.00000     0.00000

 56 55  0  0  0  0  0  0  0  0  1 V2000
   -4.8482  -31.7987  -35.3396 C   0  0  0  0  0  0  0  0  0  0  0  0
  -21.2261  -23.1586  -39.4025 C   0  0  0  0  0  0  0  0  0  0  0  0
  -21.3133  -24.5206  -38.7321 C   0  0  0  0  0  0  0  0  0  0  0  0
  -20.2893  -24.7158  -37.6116 C   0  0  0  0  0  0  0  0  0  0  0  0
  -18.8194  -24.5905  -38.0270 C   0  0  0  0  0  0  0  0  0  0  0  0
  -17.8009  -25.2131  -37.0672 C   0  0  0  0  0  0  0  0  0  0  0  0
  -16.3497  -25.0329  -37.5196 C   0  0  0  0  0  0  0  0  0  0  0  0
  -15.3727  -25.4976  -36.4368 C   0  0  0  0  0  0  0  0  0  0  0  0
  -13.9014  -25.3411  -36.8335 C   0  0  0  0  0  0  0  0  0  0  0  0
  -12.8753  -25.8225  -35.8029 C   0  0  0  0  0  0  0  0  0  0  0  0
  -11.4288  -25.5051  -36.1871 C   0  0  0  0  0  0  0  0  0  0  0  0
  -10.4410  -26.2093  -35.2541 C   0  0  0  0  0  0  0  0  0  0  0  0
  -10.3137  -27.6954  -35.5980 C   0  0  0  0  0  0  0  0  0  0  0  0
   -8.9926  -28.2711  -35.0836 C   0  0  0  0  0  0  0  0  0  0  0  0
   -8.8744  -29.7873  -35.2675 C   0  0  0  0  0  0  0  0  0  0  0  0
   -7.4498  -30.3149  -35.0674 C   0  0  0  0  0  0  0  0  0  0  0  0
   -7.3423  -31.8165  -35.3176 C   0  0  0  0  0  0  0  0  0  0  0  0
   -3.7655  -32.4969  -34.8355 N   0  0  0  0  0  0  0  0  0  0  0  0
   -6.0630  -32.3470  -34.9358 N   0  0  0  0  0  0  0  0  0  0  0  0
   -4.7264  -30.8097  -36.0603 O   0  0  0  0  0  0  0  0  0  0  0  0
  -20.2439  -23.0091  -39.8617 H   0  0  0  0  0  0  0  0  0  0  0  0
  -21.3783  -22.3657  -38.6632 H   0  0  0  0  0  0  0  0  0  0  0  0
  -21.9911  -23.0419  -40.1756 H   0  0  0  0  0  0  0  0  0  0  0  0
  -21.2096  -25.3077  -39.4869 H   0  0  0  0  0  0  0  0  0  0  0  0
  -22.3170  -24.6340  -38.3046 H   0  0  0  0  0  0  0  0  0  0  0  0
  -20.4553  -25.6978  -37.1530 H   0  0  0  0  0  0  0  0  0  0  0  0
  -20.4855  -23.9802  -36.8211 H   0  0  0  0  0  0  0  0  0  0  0  0
  -18.5864  -23.5249  -38.1467 H   0  0  0  0  0  0  0  0  0  0  0  0
  -18.6839  -25.0399  -39.0181 H   0  0  0  0  0  0  0  0  0  0  0  0
  -17.9306  -24.7990  -36.0607 H   0  0  0  0  0  0  0  0  0  0  0  0
  -18.0211  -26.2853  -36.9887 H   0  0  0  0  0  0  0  0  0  0  0  0
  -16.1672  -23.9782  -37.7473 H   0  0  0  0  0  0  0  0  0  0  0  0
  -16.1774  -25.6030  -38.4402 H   0  0  0  0  0  0  0  0  0  0  0  0
  -15.5687  -24.9578  -35.5031 H   0  0  0  0  0  0  0  0  0  0  0  0
  -15.5538  -26.5582  -36.2208 H   0  0  0  0  0  0  0  0  0  0  0  0
  -13.7036  -24.2837  -37.0495 H   0  0  0  0  0  0  0  0  0  0  0  0
  -13.7384  -25.8820  -37.7741 H   0  0  0  0  0  0  0  0  0  0  0  0
  -12.9881  -26.8998  -35.6361 H   0  0  0  0  0  0  0  0  0  0  0  0
  -13.1060  -25.3392  -34.8450 H   0  0  0  0  0  0  0  0  0  0  0  0
  -11.2351  -25.8239  -37.2173 H   0  0  0  0  0  0  0  0  0  0  0  0
  -11.2662  -24.4214  -36.1445 H   0  0  0  0  0  0  0  0  0  0  0  0
  -10.7760  -26.1005  -34.2153 H   0  0  0  0  0  0  0  0  0  0  0  0
   -9.4579  -25.7290  -35.3296 H   0  0  0  0  0  0  0  0  0  0  0  0
  -10.3740  -27.8265  -36.6852 H   0  0  0  0  0  0  0  0  0  0  0  0
  -11.1575  -28.2375  -35.1572 H   0  0  0  0  0  0  0  0  0  0  0  0
   -8.1628  -27.7972  -35.6226 H   0  0  0  0  0  0  0  0  0  0  0  0
   -8.8653  -28.0183  -34.0240 H   0  0  0  0  0  0  0  0  0  0  0  0
   -9.2140  -30.0297  -36.2815 H   0  0  0  0  0  0  0  0  0  0  0  0
   -9.5576  -30.2956  -34.5763 H   0  0  0  0  0  0  0  0  0  0  0  0
   -7.1274  -30.1202  -34.0387 H   0  0  0  0  0  0  0  0  0  0  0  0
   -6.7615  -29.7782  -35.7318 H   0  0  0  0  0  0  0  0  0  0  0  0
   -8.0961  -32.3480  -34.7280 H   0  0  0  0  0  0  0  0  0  0  0  0
   -7.5044  -32.0561  -36.3732 H   0  0  0  0  0  0  0  0  0  0  0  0
   -2.8112  -32.2199  -35.0392 H   0  0  0  0  0  0  0  0  0  0  0  0
   -3.8951  -33.3101  -34.2430 H   0  0  0  0  0  0  0  0  0  0  0  0
   -6.0433  -33.1706  -34.3360 H   0  0  0  0  0  0  0  0  0  0  0  0
  1 18  1  0  0  0  0
  1 19  1  0  0  0  0
  1 20  2  0  0  0  0
  2  3  1  0  0  0  0
  3  4  1  0  0  0  0
  4  5  1  0  0  0  0
  5  6  1  0  0  0  0
  6  7  1  0  0  0  0
  7  8  1  0  0  0  0
  8  9  1  0  0  0  0
  9 10  1  0  0  0  0
 10 11  1  0  0  0  0
 11 12  1  0  0  0  0
 12 13  1  0  0  0  0
 13 14  1  0  0  0  0
 14 15  1  0  0  0  0
 15 16  1  0  0  0  0
 16 17  1  0  0  0  0
 17 19  1  0  0  0  0
  2 21  1  0  0  0  0
  2 22  1  0  0  0  0
  2 23  1  0  0  0  0
  3 24  1  0  0  0  0
  3 25  1  0  0  0  0
  4 26  1  0  0  0  0
  4 27  1  0  0  0  0
  5 28  1  0  0  0  0
  5 29  1  0  0  0  0
  6 30  1  0  0  0  0
  6 31  1  0  0  0  0
  7 32  1  0  0  0  0
  7 33  1  0  0  0  0
  8 34  1  0  0  0  0
  8 35  1  0  0  0  0
  9 36  1  0  0  0  0
  9 37  1  0  0  0  0
 10 38  1  0  0  0  0
 10 39  1  0  0  0  0
 11 40  1  0  0  0  0
 11 41  1  0  0  0  0
 12 42  1  0  0  0  0
 12 43  1  0  0  0  0
 13 44  1  0  0  0  0
 13 45  1  0  0  0  0
 14 46  1  0  0  0  0
 14 47  1  0  0  0  0
 15 48  1  0  0  0  0
 15 49  1  0  0  0  0
 16 50  1  0  0  0  0
 16 51  1  0  0  0  0
 17 52  1  0  0  0  0
 17 53  1  0  0  0  0
 18 54  1  0  0  0  0
 18 55  1  0  0  0  0
 19 56  1  0  0  0  0
M  END
> <Name>
IA_101.cdx

> <SourceTag>
IA_101

> <Gold.Version>
5.2

> <Gold.Id.Protein>
6HGV|6HGV_protein|mol2

> <Gold.Goldscore.Fitness>
64.3923

> <Gold.Goldscore.Internal.Vdw>
-7.3813

> <Gold.Goldscore.Internal.Torsion>
-3.9313

> <Gold.Goldscore.External.Vdw>
50.4149

> <Gold.Goldscore.Internal.HBond>
0.0000

> <Gold.Goldscore.External.HBond>
0.3697

> <Gold.Goldscore.Internal.Correction>
-6.0147

> <Gold.Goldscore.Hbonds>
donor molecule, donor type, donor heavy atom, donor atom, acceptor molecule, acceptor atom, score
      P1  H  1994  4571       L1    20  0.18

> <Gold.Goldscore.Internal.Vdw.Weighted>
-7.3813

> <Gold.Goldscore.Internal.Torsion.Weighted>
-3.9313

> <Gold.Goldscore.External.Vdw.Weighted>
69.3205

> <Gold.Goldscore.Internal.HBond.Weighted>
0.0000

> <Gold.Goldscore.External.HBond.Weighted>
0.3697

> <Gold.Goldscore.Internal.Correction.Weighted>
-6.0147

> <Gold.Protein.RotatedTorsions>
[ 3781 1176 1175 1172 ] final    2.97 input   60.00 | X-H torsion
[ 3847 1247 1246 1244 ] final  113.11 input   60.00 | X-H torsion
[ 4507 1931 1930 1928 ] final  109.62 input   60.00 | X-H torsion
[ 3677 1070 1069 1066 ] final -102.20 input   60.00 | X-H torsion
[ 3525  925  924  922 ] final   39.09 input   59.99 | X-H torsion
[ 4531 1957 1955 1953 ] final  116.54 input   60.00 | X-H torsion

> <Gold.Protein.ActiveResidues>
 PHE267  PRO268  MET310  ASP335  TRP336  MET339  TYR343  THR360  PRO361  ILE363
 PRO371  SER374  ILE375  ASN378  PHE381  TYR383  GLN384  PHE387  LEU408  LEU417
 MET419  LEU428  TYR466  MET469  ASN472  ASP496  VAL498  LEU499  MET503  HIS524
 TRP525

> <Gold.Protein.RotatedAtoms>
   -3.1163  -29.7225  -30.8362 H   0  0  0  0  0  0  0  0  0  0  0  0  # atno 3525 bound_to 925
  -11.7032  -23.7388  -31.4237 H   0  0  0  0  0  0  0  0  0  0  0  0  # atno 3677 bound_to 1070
  -10.8105  -37.2596  -33.6283 H   0  0  0  0  0  0  0  0  0  0  0  0  # atno 3781 bound_to 1176
  -14.3327  -28.3905  -37.7207 H   0  0  0  0  0  0  0  0  0  0  0  0  # atno 3847 bound_to 1247
  -12.4318  -24.0298  -39.2178 H   0  0  0  0  0  0  0  0  0  0  0  0  # atno 4507 bound_to 1931
   -2.4325  -34.0321  -36.7962 H   0  0  0  0  0  0  0  0  0  0  0  0  # atno 4531 bound_to 1957
   -9.4947  -36.3167  -33.7940 LP  0  0  0  0  0  0  0  0  0  0  0  0  # atno 5205 bound_to 1176
   -9.8001  -37.0541  -32.3694 LP  0  0  0  0  0  0  0  0  0  0  0  0  # atno 5206 bound_to 1176
  -15.7931  -28.6420  -37.0485 LP  0  0  0  0  0  0  0  0  0  0  0  0  # atno 5215 bound_to 1247
  -15.4446  -27.2024  -37.7360 LP  0  0  0  0  0  0  0  0  0  0  0  0  # atno 5216 bound_to 1247
  -13.3660  -25.3621  -39.2078 LP  0  0  0  0  0  0  0  0  0  0  0  0  # atno 5217 bound_to 1931
  -13.4015  -24.3461  -40.4857 LP  0  0  0  0  0  0  0  0  0  0  0  0  # atno 5218 bound_to 1931
  -11.3572  -22.2888  -30.7711 LP  0  0  0  0  0  0  0  0  0  0  0  0  # atno 5224 bound_to 1070
  -12.7954  -23.0008  -30.4695 LP  0  0  0  0  0  0  0  0  0  0  0  0  # atno 5225 bound_to 1070

$$$$
IA_101.cdx|SeH_inactivess_minimized|sdf|3|dock5
  -GOLD-   4172118223D 1   1.00000     0.00000

 56 55  0  0  0  0  0  0  0  0  1 V2000
   -4.1041  -30.2894  -33.5716 C   0  0  0  0  0  0  0  0  0  0  0  0
  -21.4548  -22.8735  -37.5847 C   0  0  0  0  0  0  0  0  0  0  0  0
  -21.2618  -24.2588  -38.1811 C   0  0  0  0  0  0  0  0  0  0  0  0
  -20.1839  -25.0831  -37.4733 C   0  0  0  0  0  0  0  0  0  0  0  0
  -18.7389  -24.6339  -37.7163 C   0  0  0  0  0  0  0  0  0  0  0  0
  -17.6573  -25.4637  -37.0180 C   0  0  0  0  0  0  0  0  0  0  0  0
  -16.2373  -24.9556  -37.2794 C   0  0  0  0  0  0  0  0  0  0  0  0
  -15.2186  -25.6911  -36.4051 C   0  0  0  0  0  0  0  0  0  0  0  0
  -13.7786  -25.5731  -36.9141 C   0  0  0  0  0  0  0  0  0  0  0  0
  -12.7127  -26.2897  -36.0791 C   0  0  0  0  0  0  0  0  0  0  0  0
  -11.2812  -25.8940  -36.4466 C   0  0  0  0  0  0  0  0  0  0  0  0
  -10.2768  -26.4448  -35.4317 C   0  0  0  0  0  0  0  0  0  0  0  0
  -10.0892  -27.9547  -35.5979 C   0  0  0  0  0  0  0  0  0  0  0  0
   -8.7962  -28.4283  -34.9306 C   0  0  0  0  0  0  0  0  0  0  0  0
   -8.4942  -29.9113  -35.1676 C   0  0  0  0  0  0  0  0  0  0  0  0
   -7.1930  -30.3799  -34.5079 C   0  0  0  0  0  0  0  0  0  0  0  0
   -5.9549  -29.7730  -35.1620 C   0  0  0  0  0  0  0  0  0  0  0  0
   -2.9627  -31.0643  -33.4684 N   0  0  0  0  0  0  0  0  0  0  0  0
   -4.7473  -30.4594  -34.7951 N   0  0  0  0  0  0  0  0  0  0  0  0
   -4.4865  -29.5430  -32.6722 O   0  0  0  0  0  0  0  0  0  0  0  0
  -21.6540  -22.9328  -36.5101 H   0  0  0  0  0  0  0  0  0  0  0  0
  -22.3061  -22.3755  -38.0598 H   0  0  0  0  0  0  0  0  0  0  0  0
  -20.5740  -22.2435  -37.7392 H   0  0  0  0  0  0  0  0  0  0  0  0
  -21.0356  -24.1695  -39.2492 H   0  0  0  0  0  0  0  0  0  0  0  0
  -22.2117  -24.8027  -38.1117 H   0  0  0  0  0  0  0  0  0  0  0  0
  -20.2937  -26.1325  -37.7715 H   0  0  0  0  0  0  0  0  0  0  0  0
  -20.3728  -25.0586  -36.3924 H   0  0  0  0  0  0  0  0  0  0  0  0
  -18.6456  -23.5890  -37.3939 H   0  0  0  0  0  0  0  0  0  0  0  0
  -18.5363  -24.6339  -38.7941 H   0  0  0  0  0  0  0  0  0  0  0  0
  -17.8472  -25.4976  -35.9390 H   0  0  0  0  0  0  0  0  0  0  0  0
  -17.7395  -26.4975  -37.3766 H   0  0  0  0  0  0  0  0  0  0  0  0
  -16.1899  -23.8825  -37.0704 H   0  0  0  0  0  0  0  0  0  0  0  0
  -15.9846  -25.0964  -38.3370 H   0  0  0  0  0  0  0  0  0  0  0  0
  -15.2827  -25.3266  -35.3734 H   0  0  0  0  0  0  0  0  0  0  0  0
  -15.4786  -26.7567  -36.3699 H   0  0  0  0  0  0  0  0  0  0  0  0
  -13.5113  -24.5108  -36.9767 H   0  0  0  0  0  0  0  0  0  0  0  0
  -13.7427  -25.9595  -37.9403 H   0  0  0  0  0  0  0  0  0  0  0  0
  -12.8332  -27.3754  -36.1686 H   0  0  0  0  0  0  0  0  0  0  0  0
  -12.8915  -26.0484  -35.0236 H   0  0  0  0  0  0  0  0  0  0  0  0
  -11.0290  -26.2775  -37.4415 H   0  0  0  0  0  0  0  0  0  0  0  0
  -11.2007  -24.8011  -36.4877 H   0  0  0  0  0  0  0  0  0  0  0  0
  -10.6264  -26.2282  -34.4148 H   0  0  0  0  0  0  0  0  0  0  0  0
   -9.3121  -25.9384  -35.5575 H   0  0  0  0  0  0  0  0  0  0  0  0
  -10.0661  -28.2060  -36.6652 H   0  0  0  0  0  0  0  0  0  0  0  0
  -10.9499  -28.4719  -35.1600 H   0  0  0  0  0  0  0  0  0  0  0  0
   -7.9560  -27.8428  -35.3245 H   0  0  0  0  0  0  0  0  0  0  0  0
   -8.8406  -28.2299  -33.8529 H   0  0  0  0  0  0  0  0  0  0  0  0
   -8.4326  -30.0721  -36.2505 H   0  0  0  0  0  0  0  0  0  0  0  0
   -9.3323  -30.5193  -34.8058 H   0  0  0  0  0  0  0  0  0  0  0  0
   -7.1149  -31.4700  -34.5839 H   0  0  0  0  0  0  0  0  0  0  0  0
   -7.2096  -30.1279  -33.4405 H   0  0  0  0  0  0  0  0  0  0  0  0
   -6.0390  -29.8372  -36.2516 H   0  0  0  0  0  0  0  0  0  0  0  0
   -5.8384  -28.7190  -34.8908 H   0  0  0  0  0  0  0  0  0  0  0  0
   -2.3841  -31.0524  -32.6353 H   0  0  0  0  0  0  0  0  0  0  0  0
   -2.6701  -31.6716  -34.2266 H   0  0  0  0  0  0  0  0  0  0  0  0
   -4.3386  -31.1067  -35.4676 H   0  0  0  0  0  0  0  0  0  0  0  0
  1 18  1  0  0  0  0
  1 19  1  0  0  0  0
  1 20  2  0  0  0  0
  2  3  1  0  0  0  0
  3  4  1  0  0  0  0
  4  5  1  0  0  0  0
  5  6  1  0  0  0  0
  6  7  1  0  0  0  0
  7  8  1  0  0  0  0
  8  9  1  0  0  0  0
  9 10  1  0  0  0  0
 10 11  1  0  0  0  0
 11 12  1  0  0  0  0
 12 13  1  0  0  0  0
 13 14  1  0  0  0  0
 14 15  1  0  0  0  0
 15 16  1  0  0  0  0
 16 17  1  0  0  0  0
 17 19  1  0  0  0  0
  2 21  1  0  0  0  0
  2 22  1  0  0  0  0
  2 23  1  0  0  0  0
  3 24  1  0  0  0  0
  3 25  1  0  0  0  0
  4 26  1  0  0  0  0
  4 27  1  0  0  0  0
  5 28  1  0  0  0  0
  5 29  1  0  0  0  0
  6 30  1  0  0  0  0
  6 31  1  0  0  0  0
  7 32  1  0  0  0  0
  7 33  1  0  0  0  0
  8 34  1  0  0  0  0
  8 35  1  0  0  0  0
  9 36  1  0  0  0  0
  9 37  1  0  0  0  0
 10 38  1  0  0  0  0
 10 39  1  0  0  0  0
 11 40  1  0  0  0  0
 11 41  1  0  0  0  0
 12 42  1  0  0  0  0
 12 43  1  0  0  0  0
 13 44  1  0  0  0  0
 13 45  1  0  0  0  0
 14 46  1  0  0  0  0
 14 47  1  0  0  0  0
 15 48  1  0  0  0  0
 15 49  1  0  0  0  0
 16 50  1  0  0  0  0
 16 51  1  0  0  0  0
 17 52  1  0  0  0  0
 17 53  1  0  0  0  0
 18 54  1  0  0  0  0
 18 55  1  0  0  0  0
 19 56  1  0  0  0  0
M  END
> <Name>
IA_101.cdx

> <SourceTag>
IA_101

> <Gold.Version>
5.2

> <Gold.Id.Protein>
6HGV|6HGV_protein|mol2

> <Gold.Goldscore.Fitness>
62.4932

> <Gold.Goldscore.Internal.Vdw>
-6.8189

> <Gold.Goldscore.Internal.Torsion>
-3.8636

> <Gold.Goldscore.External.Vdw>
47.1692

> <Gold.Goldscore.Internal.HBond>
0.0000

> <Gold.Goldscore.External.HBond>
2.0000

> <Gold.Goldscore.Internal.Correction>
-6.3179

> <Gold.Goldscore.Hbonds>
donor molecule, donor type, donor heavy atom, donor atom, acceptor molecule, acceptor atom, score
      P1  H   925  3525       L1    20  1.00

> <Gold.Goldscore.Internal.Vdw.Weighted>
-6.8189

> <Gold.Goldscore.Internal.Torsion.Weighted>
-3.8636

> <Gold.Goldscore.External.Vdw.Weighted>
64.8577

> <Gold.Goldscore.Internal.HBond.Weighted>
0.0000

> <Gold.Goldscore.External.HBond.Weighted>
2.0000

> <Gold.Goldscore.Internal.Correction.Weighted>
-6.3179

> <Gold.Protein.RotatedTorsions>
[ 3781 1176 1175 1172 ] final  -81.19 input   60.00 | X-H torsion
[ 3847 1247 1246 1244 ] final   86.24 input   60.00 | X-H torsion
[ 4507 1931 1930 1928 ] final  119.81 input   60.00 | X-H torsion
[ 3677 1070 1069 1066 ] final  -77.63 input   60.00 | X-H torsion
[ 3525  925  924  922 ] final   19.35 input   59.99 | X-H torsion
[ 4531 1957 1955 1953 ] final  -37.33 input   60.00 | X-H torsion

> <Gold.Protein.ActiveResidues>
 PHE267  PRO268  MET310  ASP335  TRP336  MET339  TYR343  THR360  PRO361  ILE363
 PRO371  SER374  ILE375  ASN378  PHE381  TYR383  GLN384  PHE387  LEU408  LEU417
 MET419  LEU428  TYR466  MET469  ASN472  ASP496  VAL498  LEU499  MET503  HIS524
 TRP525

> <Gold.Protein.RotatedAtoms>
   -3.3863  -29.6175  -30.6979 H   0  0  0  0  0  0  0  0  0  0  0  0  # atno 3525 bound_to 925
  -12.0685  -23.8427  -31.3033 H   0  0  0  0  0  0  0  0  0  0  0  0  # atno 3677 bound_to 1070
   -9.9407  -36.4972  -34.1147 H   0  0  0  0  0  0  0  0  0  0  0  0  # atno 3781 bound_to 1176
  -14.5155  -28.7300  -37.5191 H   0  0  0  0  0  0  0  0  0  0  0  0  # atno 3847 bound_to 1247
  -12.4453  -23.9355  -39.3539 H   0  0  0  0  0  0  0  0  0  0  0  0  # atno 4507 bound_to 1931
   -2.3410  -32.2103  -36.7821 H   0  0  0  0  0  0  0  0  0  0  0  0  # atno 4531 bound_to 1957
   -9.3979  -36.7015  -32.5943 LP  0  0  0  0  0  0  0  0  0  0  0  0  # atno 5205 bound_to 1176
  -10.7728  -37.4371  -33.0793 LP  0  0  0  0  0  0  0  0  0  0  0  0  # atno 5206 bound_to 1176
  -16.0198  -28.2708  -37.1016 LP  0  0  0  0  0  0  0  0  0  0  0  0  # atno 5215 bound_to 1247
  -15.0339  -27.2318  -37.8860 LP  0  0  0  0  0  0  0  0  0  0  0  0  # atno 5216 bound_to 1247
  -13.2620  -25.3170  -39.0847 LP  0  0  0  0  0  0  0  0  0  0  0  0  # atno 5217 bound_to 1931
  -13.4918  -24.4862  -40.4717 LP  0  0  0  0  0  0  0  0  0  0  0  0  # atno 5218 bound_to 1931
  -11.1486  -22.5322  -31.0123 LP  0  0  0  0  0  0  0  0  0  0  0  0  # atno 5224 bound_to 1070
  -12.6362  -22.6527  -30.3495 LP  0  0  0  0  0  0  0  0  0  0  0  0  # atno 5225 bound_to 1070

$$$$
IA_102.cdx|SeH_inactivess_minimized|sdf|4|dock5
  -GOLD-   4172118253D 1   1.00000     0.00000

 59 58  0  0  0  0  0  0  0  0  1 V2000
  -22.4586  -22.9487  -38.5559 C   0  0  0  0  0  0  0  0  0  0  0  0
   -4.3302  -31.9142  -35.0607 C   0  0  0  0  0  0  0  0  0  0  0  0
  -24.3948  -21.7343  -39.5576 C   0  0  0  0  0  0  0  0  0  0  0  0
   -5.1369  -30.8522  -34.3303 C   0  0  0  0  0  0  0  0  0  0  0  0
   -6.3557  -30.3637  -35.1164 C   0  0  0  0  0  0  0  0  0  0  0  0
   -7.1820  -29.2627  -34.4428 C   0  0  0  0  0  0  0  0  0  0  0  0
   -8.4024  -28.7718  -35.2274 C   0  0  0  0  0  0  0  0  0  0  0  0
   -8.9701  -27.4498  -34.7048 C   0  0  0  0  0  0  0  0  0  0  0  0
  -10.2583  -27.0733  -35.4407 C   0  0  0  0  0  0  0  0  0  0  0  0
  -10.7204  -25.6383  -35.1685 C   0  0  0  0  0  0  0  0  0  0  0  0
  -11.7348  -25.0621  -36.1614 C   0  0  0  0  0  0  0  0  0  0  0  0
  -13.1648  -25.5533  -35.9275 C   0  0  0  0  0  0  0  0  0  0  0  0
  -14.0841  -25.1516  -37.0832 C   0  0  0  0  0  0  0  0  0  0  0  0
  -15.5573  -25.3394  -36.7132 C   0  0  0  0  0  0  0  0  0  0  0  0
  -16.4766  -24.7730  -37.7975 C   0  0  0  0  0  0  0  0  0  0  0  0
  -17.9653  -24.8744  -37.4503 C   0  0  0  0  0  0  0  0  0  0  0  0
  -18.8618  -24.0349  -38.3665 C   0  0  0  0  0  0  0  0  0  0  0  0
  -20.3341  -24.1102  -37.9718 C   0  0  0  0  0  0  0  0  0  0  0  0
  -23.0727  -22.3122  -39.6312 N   0  0  0  0  0  0  0  0  0  0  0  0
  -21.1868  -23.4152  -38.8957 N   0  0  0  0  0  0  0  0  0  0  0  0
  -22.9684  -23.0861  -37.4446 O   0  0  0  0  0  0  0  0  0  0  0  0
   -4.9410  -32.7986  -35.2670 H   0  0  0  0  0  0  0  0  0  0  0  0
   -3.4785  -32.2265  -34.4478 H   0  0  0  0  0  0  0  0  0  0  0  0
   -3.9355  -31.5372  -36.0087 H   0  0  0  0  0  0  0  0  0  0  0  0
  -24.6154  -21.1830  -40.4753 H   0  0  0  0  0  0  0  0  0  0  0  0
  -24.4603  -21.0471  -38.7097 H   0  0  0  0  0  0  0  0  0  0  0  0
  -25.1442  -22.5202  -39.4305 H   0  0  0  0  0  0  0  0  0  0  0  0
   -4.4853  -30.0104  -34.0720 H   0  0  0  0  0  0  0  0  0  0  0  0
   -5.4868  -31.2738  -33.3800 H   0  0  0  0  0  0  0  0  0  0  0  0
   -7.0014  -31.2235  -35.3309 H   0  0  0  0  0  0  0  0  0  0  0  0
   -6.0205  -29.9913  -36.0930 H   0  0  0  0  0  0  0  0  0  0  0  0
   -6.5209  -28.4087  -34.2473 H   0  0  0  0  0  0  0  0  0  0  0  0
   -7.5178  -29.6126  -33.4593 H   0  0  0  0  0  0  0  0  0  0  0  0
   -8.1523  -28.6747  -36.2901 H   0  0  0  0  0  0  0  0  0  0  0  0
   -9.1788  -29.5447  -35.1643 H   0  0  0  0  0  0  0  0  0  0  0  0
   -8.2284  -26.6563  -34.8387 H   0  0  0  0  0  0  0  0  0  0  0  0
   -9.1711  -27.5344  -33.6303 H   0  0  0  0  0  0  0  0  0  0  0  0
  -10.1294  -27.2277  -36.5182 H   0  0  0  0  0  0  0  0  0  0  0  0
  -11.0619  -27.7523  -35.1283 H   0  0  0  0  0  0  0  0  0  0  0  0
   -9.8421  -24.9810  -35.1519 H   0  0  0  0  0  0  0  0  0  0  0  0
  -11.1514  -25.6001  -34.1603 H   0  0  0  0  0  0  0  0  0  0  0  0
  -11.4263  -25.2903  -37.1881 H   0  0  0  0  0  0  0  0  0  0  0  0
  -11.7122  -23.9687  -36.0715 H   0  0  0  0  0  0  0  0  0  0  0  0
  -13.1755  -26.6443  -35.8264 H   0  0  0  0  0  0  0  0  0  0  0  0
  -13.5488  -25.1346  -34.9895 H   0  0  0  0  0  0  0  0  0  0  0  0
  -13.8478  -25.7563  -37.9674 H   0  0  0  0  0  0  0  0  0  0  0  0
  -13.9027  -24.1032  -37.3496 H   0  0  0  0  0  0  0  0  0  0  0  0
  -15.7623  -24.8397  -35.7589 H   0  0  0  0  0  0  0  0  0  0  0  0
  -15.7565  -26.4074  -36.5711 H   0  0  0  0  0  0  0  0  0  0  0  0
  -16.2348  -23.7143  -37.9532 H   0  0  0  0  0  0  0  0  0  0  0  0
  -16.2856  -25.2831  -38.7494 H   0  0  0  0  0  0  0  0  0  0  0  0
  -18.0910  -24.5421  -36.4128 H   0  0  0  0  0  0  0  0  0  0  0  0
  -18.2800  -25.9245  -37.4855 H   0  0  0  0  0  0  0  0  0  0  0  0
  -18.7702  -24.3928  -39.3978 H   0  0  0  0  0  0  0  0  0  0  0  0
  -18.5273  -22.9904  -38.3530 H   0  0  0  0  0  0  0  0  0  0  0  0
  -20.6638  -25.1540  -37.9575 H   0  0  0  0  0  0  0  0  0  0  0  0
  -20.5009  -23.6867  -36.9764 H   0  0  0  0  0  0  0  0  0  0  0  0
  -22.5670  -22.2510  -40.5093 H   0  0  0  0  0  0  0  0  0  0  0  0
  -20.8708  -23.2937  -39.8565 H   0  0  0  0  0  0  0  0  0  0  0  0
  1 19  1  0  0  0  0
  1 20  1  0  0  0  0
  1 21  2  0  0  0  0
  2  4  1  0  0  0  0
  3 19  1  0  0  0  0
  4  5  1  0  0  0  0
  5  6  1  0  0  0  0
  6  7  1  0  0  0  0
  7  8  1  0  0  0  0
  8  9  1  0  0  0  0
  9 10  1  0  0  0  0
 10 11  1  0  0  0  0
 11 12  1  0  0  0  0
 12 13  1  0  0  0  0
 13 14  1  0  0  0  0
 14 15  1  0  0  0  0
 15 16  1  0  0  0  0
 16 17  1  0  0  0  0
 17 18  1  0  0  0  0
 18 20  1  0  0  0  0
  2 22  1  0  0  0  0
  2 23  1  0  0  0  0
  2 24  1  0  0  0  0
  3 25  1  0  0  0  0
  3 26  1  0  0  0  0
  3 27  1  0  0  0  0
  4 28  1  0  0  0  0
  4 29  1  0  0  0  0
  5 30  1  0  0  0  0
  5 31  1  0  0  0  0
  6 32  1  0  0  0  0
  6 33  1  0  0  0  0
  7 34  1  0  0  0  0
  7 35  1  0  0  0  0
  8 36  1  0  0  0  0
  8 37  1  0  0  0  0
  9 38  1  0  0  0  0
  9 39  1  0  0  0  0
 10 40  1  0  0  0  0
 10 41  1  0  0  0  0
 11 42  1  0  0  0  0
 11 43  1  0  0  0  0
 12 44  1  0  0  0  0
 12 45  1  0  0  0  0
 13 46  1  0  0  0  0
 13 47  1  0  0  0  0
 14 48  1  0  0  0  0
 14 49  1  0  0  0  0
 15 50  1  0  0  0  0
 15 51  1  0  0  0  0
 16 52  1  0  0  0  0
 16 53  1  0  0  0  0
 17 54  1  0  0  0  0
 17 55  1  0  0  0  0
 18 56  1  0  0  0  0
 18 57  1  0  0  0  0
 19 58  1  0  0  0  0
 20 59  1  0  0  0  0
M  END
> <Name>
IA_102.cdx

> <SourceTag>
IA_102

> <Gold.Version>
5.2

> <Gold.Id.Protein>
6HGV|6HGV_protein|mol2

> <Gold.Goldscore.Fitness>
72.0565

> <Gold.Goldscore.Internal.Vdw>
-6.2639

> <Gold.Goldscore.Internal.Torsion>
-4.4267

> <Gold.Goldscore.External.Vdw>
54.7911

> <Gold.Goldscore.Internal.HBond>
0.0000

> <Gold.Goldscore.External.HBond>
0.0000

> <Gold.Goldscore.Internal.Correction>
-7.4094

> <Gold.Goldscore.Internal.Vdw.Weighted>
-6.2639

> <Gold.Goldscore.Internal.Torsion.Weighted>
-4.4267

> <Gold.Goldscore.External.Vdw.Weighted>
75.3377

> <Gold.Goldscore.Internal.HBond.Weighted>
0.0000

> <Gold.Goldscore.External.HBond.Weighted>
0.0000

> <Gold.Goldscore.Internal.Correction.Weighted>
-7.4094

> <Gold.Protein.RotatedTorsions>
[ 3781 1176 1175 1172 ] final    1.65 input   60.00 | X-H torsion
[ 3847 1247 1246 1244 ] final  117.13 input   60.00 | X-H torsion
[ 4507 1931 1930 1928 ] final  115.84 input   60.00 | X-H torsion
[ 3677 1070 1069 1066 ] final -108.80 input   60.00 | X-H torsion
[ 3525  925  924  922 ] final   31.61 input   59.99 | X-H torsion
[ 4531 1957 1955 1953 ] final  107.17 input   60.00 | X-H torsion

> <Gold.Protein.ActiveResidues>
 PHE267  PRO268  MET310  ASP335  TRP336  MET339  TYR343  THR360  PRO361  ILE363
 PRO371  SER374  ILE375  ASN378  PHE381  TYR383  GLN384  PHE387  LEU408  LEU417
 MET419  LEU428  TYR466  MET469  ASN472  ASP496  VAL498  LEU499  MET503  HIS524
 TRP525

> <Gold.Protein.RotatedAtoms>
   -3.2233  -29.6796  -30.7956 H   0  0  0  0  0  0  0  0  0  0  0  0  # atno 3525 bound_to 925
  -11.6100  -23.6870  -31.4401 H   0  0  0  0  0  0  0  0  0  0  0  0  # atno 3677 bound_to 1070
  -10.8063  -37.2498  -33.6470 H   0  0  0  0  0  0  0  0  0  0  0  0  # atno 3781 bound_to 1176
  -14.3208  -28.3319  -37.7478 H   0  0  0  0  0  0  0  0  0  0  0  0  # atno 3847 bound_to 1247
  -12.4377  -23.9700  -39.2995 H   0  0  0  0  0  0  0  0  0  0  0  0  # atno 4507 bound_to 1931
   -2.5731  -33.9785  -36.7685 H   0  0  0  0  0  0  0  0  0  0  0  0  # atno 4531 bound_to 1957
   -9.4813  -36.3141  -33.7772 LP  0  0  0  0  0  0  0  0  0  0  0  0  # atno 5205 bound_to 1176
   -9.8177  -37.0665  -32.3675 LP  0  0  0  0  0  0  0  0  0  0  0  0  # atno 5206 bound_to 1176
  -15.7464  -28.6888  -37.0490 LP  0  0  0  0  0  0  0  0  0  0  0  0  # atno 5215 bound_to 1247
  -15.5034  -27.2147  -37.7083 LP  0  0  0  0  0  0  0  0  0  0  0  0  # atno 5216 bound_to 1247
  -13.3035  -25.3374  -39.1308 LP  0  0  0  0  0  0  0  0  0  0  0  0  # atno 5217 bound_to 1931
  -13.4581  -24.4310  -40.4803 LP  0  0  0  0  0  0  0  0  0  0  0  0  # atno 5218 bound_to 1931
  -11.4337  -22.2443  -30.7081 LP  0  0  0  0  0  0  0  0  0  0  0  0  # atno 5224 bound_to 1070
  -12.8128  -23.0975  -30.5160 LP  0  0  0  0  0  0  0  0  0  0  0  0  # atno 5225 bound_to 1070

$$$$
IA_102.cdx|SeH_inactivess_minimized|sdf|4|dock10
  -GOLD-   4172118273D 1   1.00000     0.00000

 59 58  0  0  0  0  0  0  0  0  1 V2000
  -10.0102  -31.2428  -35.4281 C   0  0  0  0  0  0  0  0  0  0  0  0
  -24.0849  -22.9497  -35.2820 C   0  0  0  0  0  0  0  0  0  0  0  0
  -11.4458  -33.2838  -35.4574 C   0  0  0  0  0  0  0  0  0  0  0  0
  -23.5109  -24.2610  -34.7687 C   0  0  0  0  0  0  0  0  0  0  0  0
  -22.7516  -25.0537  -35.8350 C   0  0  0  0  0  0  0  0  0  0  0  0
  -21.3692  -24.5077  -36.2087 C   0  0  0  0  0  0  0  0  0  0  0  0
  -20.7275  -25.1187  -37.4580 C   0  0  0  0  0  0  0  0  0  0  0  0
  -19.3498  -24.5353  -37.7814 C   0  0  0  0  0  0  0  0  0  0  0  0
  -18.2870  -25.0610  -36.8134 C   0  0  0  0  0  0  0  0  0  0  0  0
  -16.8522  -24.7737  -37.2666 C   0  0  0  0  0  0  0  0  0  0  0  0
  -15.7439  -25.4238  -36.4323 C   0  0  0  0  0  0  0  0  0  0  0  0
  -14.3418  -25.2068  -37.0047 C   0  0  0  0  0  0  0  0  0  0  0  0
  -13.2637  -25.6234  -36.0015 C   0  0  0  0  0  0  0  0  0  0  0  0
  -11.8732  -25.1809  -36.4633 C   0  0  0  0  0  0  0  0  0  0  0  0
  -10.7897  -25.6622  -35.4958 C   0  0  0  0  0  0  0  0  0  0  0  0
  -10.5202  -27.1679  -35.5808 C   0  0  0  0  0  0  0  0  0  0  0  0
   -9.2904  -27.6114  -34.7816 C   0  0  0  0  0  0  0  0  0  0  0  0
   -8.8807  -29.0488  -35.0898 C   0  0  0  0  0  0  0  0  0  0  0  0
  -11.1212  -31.9568  -34.9871 N   0  0  0  0  0  0  0  0  0  0  0  0
   -9.9309  -29.9902  -34.8157 N   0  0  0  0  0  0  0  0  0  0  0  0
   -9.1983  -31.6586  -36.2537 O   0  0  0  0  0  0  0  0  0  0  0  0
  -24.6731  -22.4484  -34.5070 H   0  0  0  0  0  0  0  0  0  0  0  0
  -24.7415  -23.1367  -36.1377 H   0  0  0  0  0  0  0  0  0  0  0  0
  -23.2956  -22.2683  -35.6128 H   0  0  0  0  0  0  0  0  0  0  0  0
  -12.0470  -33.2229  -36.3683 H   0  0  0  0  0  0  0  0  0  0  0  0
  -12.0137  -33.8260  -34.6965 H   0  0  0  0  0  0  0  0  0  0  0  0
  -10.5312  -33.8415  -35.6761 H   0  0  0  0  0  0  0  0  0  0  0  0
  -24.3143  -24.8691  -34.3390 H   0  0  0  0  0  0  0  0  0  0  0  0
  -22.8190  -24.0395  -33.9468 H   0  0  0  0  0  0  0  0  0  0  0  0
  -23.3744  -25.1144  -36.7355 H   0  0  0  0  0  0  0  0  0  0  0  0
  -22.6290  -26.0873  -35.4867 H   0  0  0  0  0  0  0  0  0  0  0  0
  -20.6972  -24.6623  -35.3549 H   0  0  0  0  0  0  0  0  0  0  0  0
  -21.4339  -23.4217  -36.3460 H   0  0  0  0  0  0  0  0  0  0  0  0
  -20.6541  -26.2070  -37.3493 H   0  0  0  0  0  0  0  0  0  0  0  0
  -21.4003  -24.9398  -38.3062 H   0  0  0  0  0  0  0  0  0  0  0  0
  -19.3923  -23.4436  -37.7186 H   0  0  0  0  0  0  0  0  0  0  0  0
  -19.0720  -24.7951  -38.8098 H   0  0  0  0  0  0  0  0  0  0  0  0
  -18.4554  -24.6430  -35.8142 H   0  0  0  0  0  0  0  0  0  0  0  0
  -18.3988  -26.1481  -36.7132 H   0  0  0  0  0  0  0  0  0  0  0  0
  -16.6920  -23.6883  -37.2673 H   0  0  0  0  0  0  0  0  0  0  0  0
  -16.7478  -25.1000  -38.3089 H   0  0  0  0  0  0  0  0  0  0  0  0
  -15.9384  -26.4967  -36.3210 H   0  0  0  0  0  0  0  0  0  0  0  0
  -15.7882  -24.9988  -35.4216 H   0  0  0  0  0  0  0  0  0  0  0  0
  -14.2169  -25.7894  -37.9242 H   0  0  0  0  0  0  0  0  0  0  0  0
  -14.2111  -24.1501  -37.2673 H   0  0  0  0  0  0  0  0  0  0  0  0
  -13.2795  -26.7132  -35.8771 H   0  0  0  0  0  0  0  0  0  0  0  0
  -13.4834  -25.1822  -35.0217 H   0  0  0  0  0  0  0  0  0  0  0  0
  -11.8419  -24.0872  -36.5365 H   0  0  0  0  0  0  0  0  0  0  0  0
  -11.6863  -25.5799  -37.4664 H   0  0  0  0  0  0  0  0  0  0  0  0
   -9.8533  -25.1357  -35.7181 H   0  0  0  0  0  0  0  0  0  0  0  0
  -11.0649  -25.3954  -34.4682 H   0  0  0  0  0  0  0  0  0  0  0  0
  -10.3803  -27.4243  -36.6378 H   0  0  0  0  0  0  0  0  0  0  0  0
  -11.4037  -27.7192  -35.2367 H   0  0  0  0  0  0  0  0  0  0  0  0
   -9.5055  -27.5443  -33.7096 H   0  0  0  0  0  0  0  0  0  0  0  0
   -8.4526  -26.9345  -34.9889 H   0  0  0  0  0  0  0  0  0  0  0  0
   -8.6342  -29.1472  -36.1518 H   0  0  0  0  0  0  0  0  0  0  0  0
   -8.0027  -29.3455  -34.5074 H   0  0  0  0  0  0  0  0  0  0  0  0
  -11.7327  -31.5242  -34.3019 H   0  0  0  0  0  0  0  0  0  0  0  0
  -10.6779  -29.7178  -34.1790 H   0  0  0  0  0  0  0  0  0  0  0  0
  1 19  1  0  0  0  0
  1 20  1  0  0  0  0
  1 21  2  0  0  0  0
  2  4  1  0  0  0  0
  3 19  1  0  0  0  0
  4  5  1  0  0  0  0
  5  6  1  0  0  0  0
  6  7  1  0  0  0  0
  7  8  1  0  0  0  0
  8  9  1  0  0  0  0
  9 10  1  0  0  0  0
 10 11  1  0  0  0  0
 11 12  1  0  0  0  0
 12 13  1  0  0  0  0
 13 14  1  0  0  0  0
 14 15  1  0  0  0  0
 15 16  1  0  0  0  0
 16 17  1  0  0  0  0
 17 18  1  0  0  0  0
 18 20  1  0  0  0  0
  2 22  1  0  0  0  0
  2 23  1  0  0  0  0
  2 24  1  0  0  0  0
  3 25  1  0  0  0  0
  3 26  1  0  0  0  0
  3 27  1  0  0  0  0
  4 28  1  0  0  0  0
  4 29  1  0  0  0  0
  5 30  1  0  0  0  0
  5 31  1  0  0  0  0
  6 32  1  0  0  0  0
  6 33  1  0  0  0  0
  7 34  1  0  0  0  0
  7 35  1  0  0  0  0
  8 36  1  0  0  0  0
  8 37  1  0  0  0  0
  9 38  1  0  0  0  0
  9 39  1  0  0  0  0
 10 40  1  0  0  0  0
 10 41  1  0  0  0  0
 11 42  1  0  0  0  0
 11 43  1  0  0  0  0
 12 44  1  0  0  0  0
 12 45  1  0  0  0  0
 13 46  1  0  0  0  0
 13 47  1  0  0  0  0
 14 48  1  0  0  0  0
 14 49  1  0  0  0  0
 15 50  1  0  0  0  0
 15 51  1  0  0  0  0
 16 52  1  0  0  0  0
 16 53  1  0  0  0  0
 17 54  1  0  0  0  0
 17 55  1  0  0  0  0
 18 56  1  0  0  0  0
 18 57  1  0  0  0  0
 19 58  1  0  0  0  0
 20 59  1  0  0  0  0
M  END
> <Name>
IA_102.cdx

> <SourceTag>
IA_102

> <Gold.Version>
5.2

> <Gold.Id.Protein>
6HGV|6HGV_protein|mol2

> <Gold.Goldscore.Fitness>
68.8726

> <Gold.Goldscore.Internal.Vdw>
-8.0972

> <Gold.Goldscore.Internal.Torsion>
-4.1258

> <Gold.Goldscore.External.Vdw>
53.6035

> <Gold.Goldscore.Internal.HBond>
0.0000

> <Gold.Goldscore.External.HBond>
0.0000

> <Gold.Goldscore.Internal.Correction>
-7.3907

> <Gold.Goldscore.Internal.Vdw.Weighted>
-8.0972

> <Gold.Goldscore.Internal.Torsion.Weighted>
-4.1258

> <Gold.Goldscore.External.Vdw.Weighted>
73.7048

> <Gold.Goldscore.Internal.HBond.Weighted>
0.0000

> <Gold.Goldscore.External.HBond.Weighted>
0.0000

> <Gold.Goldscore.Internal.Correction.Weighted>
-7.3907

> <Gold.Protein.RotatedTorsions>
[ 3781 1176 1175 1172 ] final  -65.61 input   60.00 | X-H torsion
[ 3847 1247 1246 1244 ] final  115.00 input   60.00 | X-H torsion
[ 4507 1931 1930 1928 ] final  114.95 input   60.00 | X-H torsion
[ 3677 1070 1069 1066 ] final -103.30 input   60.00 | X-H torsion
[ 3525  925  924  922 ] final  100.29 input   59.99 | X-H torsion
[ 4531 1957 1955 1953 ] final  125.29 input   60.00 | X-H torsion

> <Gold.Protein.ActiveResidues>
 PHE267  PRO268  MET310  ASP335  TRP336  MET339  TYR343  THR360  PRO361  ILE363
 PRO371  SER374  ILE375  ASN378  PHE381  TYR383  GLN384  PHE387  LEU408  LEU417
 MET419  LEU428  TYR466  MET469  ASN472  ASP496  VAL498  LEU499  MET503  HIS524
 TRP525

> <Gold.Protein.RotatedAtoms>
   -2.2800  -30.1094  -30.5924 H   0  0  0  0  0  0  0  0  0  0  0  0  # atno 3525 bound_to 925
  -11.6874  -23.7308  -31.4270 H   0  0  0  0  0  0  0  0  0  0  0  0  # atno 3677 bound_to 1070
  -10.1559  -36.6245  -34.1582 H   0  0  0  0  0  0  0  0  0  0  0  0  # atno 3781 bound_to 1176
  -14.3266  -28.3631  -37.7336 H   0  0  0  0  0  0  0  0  0  0  0  0  # atno 3847 bound_to 1247
  -12.4364  -23.9781  -39.2876 H   0  0  0  0  0  0  0  0  0  0  0  0  # atno 4507 bound_to 1931
   -2.2950  -34.0604  -36.8228 H   0  0  0  0  0  0  0  0  0  0  0  0  # atno 4531 bound_to 1957
   -9.2925  -36.5615  -32.7803 LP  0  0  0  0  0  0  0  0  0  0  0  0  # atno 5205 bound_to 1176
  -10.6615  -37.4489  -32.8495 LP  0  0  0  0  0  0  0  0  0  0  0  0  # atno 5206 bound_to 1176
  -15.7715  -28.6644  -37.0485 LP  0  0  0  0  0  0  0  0  0  0  0  0  # atno 5215 bound_to 1247
  -15.4724  -27.2077  -37.7231 LP  0  0  0  0  0  0  0  0  0  0  0  0  # atno 5216 bound_to 1247
  -13.3126  -25.3415  -39.1414 LP  0  0  0  0  0  0  0  0  0  0  0  0  # atno 5217 bound_to 1931
  -13.4503  -24.4188  -40.4817 LP  0  0  0  0  0  0  0  0  0  0  0  0  # atno 5218 bound_to 1931
  -11.3694  -22.2807  -30.7605 LP  0  0  0  0  0  0  0  0  0  0  0  0  # atno 5224 bound_to 1070
  -12.7991  -23.0169  -30.4768 LP  0  0  0  0  0  0  0  0  0  0  0  0  # atno 5225 bound_to 1070

$$$$
IA_102.cdx|SeH_inactivess_minimized|sdf|4|dock8
  -GOLD-   4172118273D 1   1.00000     0.00000

 59 58  0  0  0  0  0  0  0  0  1 V2000
   -8.1970  -31.1219  -35.8569 C   0  0  0  0  0  0  0  0  0  0  0  0
  -24.8053  -21.9165  -39.2518 C   0  0  0  0  0  0  0  0  0  0  0  0
   -7.9219  -33.5727  -36.2377 C   0  0  0  0  0  0  0  0  0  0  0  0
  -23.9164  -22.7135  -38.3100 C   0  0  0  0  0  0  0  0  0  0  0  0
  -22.5198  -22.9858  -38.8733 C   0  0  0  0  0  0  0  0  0  0  0  0
  -21.5940  -23.8171  -37.9785 C   0  0  0  0  0  0  0  0  0  0  0  0
  -20.1020  -23.7485  -38.3182 C   0  0  0  0  0  0  0  0  0  0  0  0
  -19.2424  -24.6947  -37.4762 C   0  0  0  0  0  0  0  0  0  0  0  0
  -17.7543  -24.3702  -37.6280 C   0  0  0  0  0  0  0  0  0  0  0  0
  -16.8414  -25.2953  -36.8172 C   0  0  0  0  0  0  0  0  0  0  0  0
  -15.3374  -25.0355  -36.9494 C   0  0  0  0  0  0  0  0  0  0  0  0
  -14.5056  -25.6875  -35.8432 C   0  0  0  0  0  0  0  0  0  0  0  0
  -13.0075  -25.5626  -36.1304 C   0  0  0  0  0  0  0  0  0  0  0  0
  -12.1749  -26.2728  -35.0604 C   0  0  0  0  0  0  0  0  0  0  0  0
  -10.6772  -26.0681  -35.2987 C   0  0  0  0  0  0  0  0  0  0  0  0
   -9.7914  -26.8379  -34.3140 C   0  0  0  0  0  0  0  0  0  0  0  0
   -9.7611  -28.3474  -34.5755 C   0  0  0  0  0  0  0  0  0  0  0  0
   -8.8472  -28.7204  -35.7395 C   0  0  0  0  0  0  0  0  0  0  0  0
   -8.6223  -32.3223  -36.4197 N   0  0  0  0  0  0  0  0  0  0  0  0
   -9.0527  -30.0694  -36.1889 N   0  0  0  0  0  0  0  0  0  0  0  0
   -7.1938  -30.9988  -35.1553 O   0  0  0  0  0  0  0  0  0  0  0  0
  -25.8099  -21.7951  -38.8349 H   0  0  0  0  0  0  0  0  0  0  0  0
  -24.8972  -22.4360  -40.2110 H   0  0  0  0  0  0  0  0  0  0  0  0
  -24.3908  -20.9239  -39.4510 H   0  0  0  0  0  0  0  0  0  0  0  0
   -8.3383  -34.1159  -35.3853 H   0  0  0  0  0  0  0  0  0  0  0  0
   -6.8603  -33.3878  -36.0526 H   0  0  0  0  0  0  0  0  0  0  0  0
   -8.0189  -34.1939  -37.1322 H   0  0  0  0  0  0  0  0  0  0  0  0
  -24.4128  -23.6535  -38.0457 H   0  0  0  0  0  0  0  0  0  0  0  0
  -23.8066  -22.1498  -37.3754 H   0  0  0  0  0  0  0  0  0  0  0  0
  -22.0408  -22.0260  -39.1004 H   0  0  0  0  0  0  0  0  0  0  0  0
  -22.6216  -23.5036  -39.8357 H   0  0  0  0  0  0  0  0  0  0  0  0
  -21.9195  -24.8641  -38.0270 H   0  0  0  0  0  0  0  0  0  0  0  0
  -21.7280  -23.5099  -36.9344 H   0  0  0  0  0  0  0  0  0  0  0  0
  -19.9488  -23.9560  -39.3835 H   0  0  0  0  0  0  0  0  0  0  0  0
  -19.7646  -22.7172  -38.1548 H   0  0  0  0  0  0  0  0  0  0  0  0
  -19.4241  -25.7276  -37.7887 H   0  0  0  0  0  0  0  0  0  0  0  0
  -19.5311  -24.6143  -36.4216 H   0  0  0  0  0  0  0  0  0  0  0  0
  -17.4735  -24.4005  -38.6871 H   0  0  0  0  0  0  0  0  0  0  0  0
  -17.5754  -23.3404  -37.2934 H   0  0  0  0  0  0  0  0  0  0  0  0
  -17.0393  -26.3337  -37.1107 H   0  0  0  0  0  0  0  0  0  0  0  0
  -17.1222  -25.2166  -35.7594 H   0  0  0  0  0  0  0  0  0  0  0  0
  -15.1437  -23.9569  -36.9739 H   0  0  0  0  0  0  0  0  0  0  0  0
  -15.0109  -25.4267  -37.9212 H   0  0  0  0  0  0  0  0  0  0  0  0
  -14.7243  -25.2137  -34.8797 H   0  0  0  0  0  0  0  0  0  0  0  0
  -14.7761  -26.7466  -35.7553 H   0  0  0  0  0  0  0  0  0  0  0  0
  -12.7284  -24.5024  -36.1689 H   0  0  0  0  0  0  0  0  0  0  0  0
  -12.7851  -25.9922  -37.1146 H   0  0  0  0  0  0  0  0  0  0  0  0
  -12.4057  -27.3447  -35.0677 H   0  0  0  0  0  0  0  0  0  0  0  0
  -12.4555  -25.8859  -34.0745 H   0  0  0  0  0  0  0  0  0  0  0  0
  -10.4283  -26.4024  -36.3135 H   0  0  0  0  0  0  0  0  0  0  0  0
  -10.4368  -24.9991  -35.2512 H   0  0  0  0  0  0  0  0  0  0  0  0
  -10.1724  -26.6505  -33.3030 H   0  0  0  0  0  0  0  0  0  0  0  0
   -8.7713  -26.4362  -34.3462 H   0  0  0  0  0  0  0  0  0  0  0  0
  -10.7709  -28.6991  -34.8133 H   0  0  0  0  0  0  0  0  0  0  0  0
   -9.4385  -28.8721  -33.6679 H   0  0  0  0  0  0  0  0  0  0  0  0
   -9.0458  -28.0662  -36.5944 H   0  0  0  0  0  0  0  0  0  0  0  0
   -7.7925  -28.6138  -35.4667 H   0  0  0  0  0  0  0  0  0  0  0  0
   -9.4654  -32.3187  -36.9851 H   0  0  0  0  0  0  0  0  0  0  0  0
   -9.8329  -30.2629  -36.8147 H   0  0  0  0  0  0  0  0  0  0  0  0
  1 19  1  0  0  0  0
  1 20  1  0  0  0  0
  1 21  2  0  0  0  0
  2  4  1  0  0  0  0
  3 19  1  0  0  0  0
  4  5  1  0  0  0  0
  5  6  1  0  0  0  0
  6  7  1  0  0  0  0
  7  8  1  0  0  0  0
  8  9  1  0  0  0  0
  9 10  1  0  0  0  0
 10 11  1  0  0  0  0
 11 12  1  0  0  0  0
 12 13  1  0  0  0  0
 13 14  1  0  0  0  0
 14 15  1  0  0  0  0
 15 16  1  0  0  0  0
 16 17  1  0  0  0  0
 17 18  1  0  0  0  0
 18 20  1  0  0  0  0
  2 22  1  0  0  0  0
  2 23  1  0  0  0  0
  2 24  1  0  0  0  0
  3 25  1  0  0  0  0
  3 26  1  0  0  0  0
  3 27  1  0  0  0  0
  4 28  1  0  0  0  0
  4 29  1  0  0  0  0
  5 30  1  0  0  0  0
  5 31  1  0  0  0  0
  6 32  1  0  0  0  0
  6 33  1  0  0  0  0
  7 34  1  0  0  0  0
  7 35  1  0  0  0  0
  8 36  1  0  0  0  0
  8 37  1  0  0  0  0
  9 38  1  0  0  0  0
  9 39  1  0  0  0  0
 10 40  1  0  0  0  0
 10 41  1  0  0  0  0
 11 42  1  0  0  0  0
 11 43  1  0  0  0  0
 12 44  1  0  0  0  0
 12 45  1  0  0  0  0
 13 46  1  0  0  0  0
 13 47  1  0  0  0  0
 14 48  1  0  0  0  0
 14 49  1  0  0  0  0
 15 50  1  0  0  0  0
 15 51  1  0  0  0  0
 16 52  1  0  0  0  0
 16 53  1  0  0  0  0
 17 54  1  0  0  0  0
 17 55  1  0  0  0  0
 18 56  1  0  0  0  0
 18 57  1  0  0  0  0
 19 58  1  0  0  0  0
 20 59  1  0  0  0  0
M  END
> <Name>
IA_102.cdx

> <SourceTag>
IA_102

> <Gold.Version>
5.2

> <Gold.Id.Protein>
6HGV|6HGV_protein|mol2

> <Gold.Goldscore.Fitness>
68.5628

> <Gold.Goldscore.Internal.Vdw>
-8.2940

> <Gold.Goldscore.Internal.Torsion>
-4.4953

> <Gold.Goldscore.External.Vdw>
52.4896

> <Gold.Goldscore.Internal.HBond>
0.0000

> <Gold.Goldscore.External.HBond>
1.7881

> <Gold.Goldscore.Internal.Correction>
-7.3907

> <Gold.Goldscore.Hbonds>
donor molecule, donor type, donor heavy atom, donor atom, acceptor molecule, acceptor atom, score
      L1  H    19    58       P1  1255  0.46
      L1  H    20    59       P1  1255  0.44

> <Gold.Goldscore.Internal.Vdw.Weighted>
-8.2940

> <Gold.Goldscore.Internal.Torsion.Weighted>
-4.4953

> <Gold.Goldscore.External.Vdw.Weighted>
72.1732

> <Gold.Goldscore.Internal.HBond.Weighted>
0.0000

> <Gold.Goldscore.External.HBond.Weighted>
1.7881

> <Gold.Goldscore.Internal.Correction.Weighted>
-7.3907

> <Gold.Protein.RotatedTorsions>
[ 3781 1176 1175 1172 ] final -112.08 input   60.00 | X-H torsion
[ 3847 1247 1246 1244 ] final   -6.17 input   60.00 | X-H torsion
[ 4507 1931 1930 1928 ] final  -68.99 input   60.00 | X-H torsion
[ 3677 1070 1069 1066 ] final -113.88 input   60.00 | X-H torsion
[ 3525  925  924  922 ] final    9.57 input   59.99 | X-H torsion
[ 4531 1957 1955 1953 ] final   48.33 input   60.00 | X-H torsion

> <Gold.Protein.ActiveResidues>
 PHE267  PRO268  MET310  ASP335  TRP336  MET339  TYR343  THR360  PRO361  ILE363
 PRO371  SER374  ILE375  ASN378  PHE381  TYR383  GLN384  PHE387  LEU408  LEU417
 MET419  LEU428  TYR466  MET469  ASN472  ASP496  VAL498  LEU499  MET503  HIS524
 TRP525

> <Gold.Protein.RotatedAtoms>
   -3.5013  -29.5768  -30.5949 H   0  0  0  0  0  0  0  0  0  0  0  0  # atno 3525 bound_to 925
  -11.5413  -23.6410  -31.4477 H   0  0  0  0  0  0  0  0  0  0  0  0  # atno 3677 bound_to 1070
   -9.5496  -36.3348  -33.8515 H   0  0  0  0  0  0  0  0  0  0  0  0  # atno 3781 bound_to 1176
  -15.7817  -28.6473  -37.0537 H   0  0  0  0  0  0  0  0  0  0  0  0  # atno 3847 bound_to 1247
  -13.6951  -25.1419  -40.0379 H   0  0  0  0  0  0  0  0  0  0  0  0  # atno 4507 bound_to 1931
   -3.0942  -33.2288  -36.6565 H   0  0  0  0  0  0  0  0  0  0  0  0  # atno 4531 bound_to 1957
   -9.7350  -37.0063  -32.3809 LP  0  0  0  0  0  0  0  0  0  0  0  0  # atno 5205 bound_to 1176
  -10.8295  -37.2958  -33.5577 LP  0  0  0  0  0  0  0  0  0  0  0  0  # atno 5206 bound_to 1176
  -15.4551  -27.2043  -37.7312 LP  0  0  0  0  0  0  0  0  0  0  0  0  # atno 5215 bound_to 1247
  -14.3234  -28.3815  -37.7251 LP  0  0  0  0  0  0  0  0  0  0  0  0  # atno 5216 bound_to 1247
  -12.7787  -23.7979  -40.0814 LP  0  0  0  0  0  0  0  0  0  0  0  0  # atno 5217 bound_to 1931
  -12.7165  -24.7904  -38.7861 LP  0  0  0  0  0  0  0  0  0  0  0  0  # atno 5218 bound_to 1931
  -11.4973  -22.2170  -30.6613 LP  0  0  0  0  0  0  0  0  0  0  0  0  # atno 5224 bound_to 1070
  -12.8183  -23.1711  -30.5552 LP  0  0  0  0  0  0  0  0  0  0  0  0  # atno 5225 bound_to 1070

$$$$
IA_102.cdx|SeH_inactivess_minimized|sdf|4|dock2
  -GOLD-   4172118243D 1   1.00000     0.00000

 59 58  0  0  0  0  0  0  0  0  1 V2000
   -4.3912  -34.0704  -33.5835 C   0  0  0  0  0  0  0  0  0  0  0  0
  -18.6472  -22.9653  -38.8603 C   0  0  0  0  0  0  0  0  0  0  0  0
   -5.1051  -36.3261  -32.7900 C   0  0  0  0  0  0  0  0  0  0  0  0
  -18.5044  -24.3009  -38.1476 C   0  0  0  0  0  0  0  0  0  0  0  0
  -17.1497  -24.4835  -37.4593 C   0  0  0  0  0  0  0  0  0  0  0  0
  -16.8662  -25.8877  -36.9147 C   0  0  0  0  0  0  0  0  0  0  0  0
  -15.6547  -26.0093  -35.9854 C   0  0  0  0  0  0  0  0  0  0  0  0
  -14.3313  -25.6390  -36.6596 C   0  0  0  0  0  0  0  0  0  0  0  0
  -13.1369  -26.0909  -35.8157 C   0  0  0  0  0  0  0  0  0  0  0  0
  -11.7817  -25.7468  -36.4414 C   0  0  0  0  0  0  0  0  0  0  0  0
  -10.5504  -26.0597  -35.5853 C   0  0  0  0  0  0  0  0  0  0  0  0
  -10.1421  -27.5338  -35.6187 C   0  0  0  0  0  0  0  0  0  0  0  0
   -8.8675  -27.7738  -34.8063 C   0  0  0  0  0  0  0  0  0  0  0  0
   -8.2256  -29.1169  -35.1622 C   0  0  0  0  0  0  0  0  0  0  0  0
   -6.8535  -29.2666  -34.5016 C   0  0  0  0  0  0  0  0  0  0  0  0
   -6.1406  -30.5733  -34.8637 C   0  0  0  0  0  0  0  0  0  0  0  0
   -4.8074  -30.7616  -34.1322 C   0  0  0  0  0  0  0  0  0  0  0  0
   -3.9725  -31.8949  -34.7217 C   0  0  0  0  0  0  0  0  0  0  0  0
   -5.1539  -35.2265  -33.7259 N   0  0  0  0  0  0  0  0  0  0  0  0
   -4.6287  -33.1692  -34.6235 N   0  0  0  0  0  0  0  0  0  0  0  0
   -3.6050  -33.8644  -32.6597 O   0  0  0  0  0  0  0  0  0  0  0  0
  -17.9361  -22.8840  -39.6883 H   0  0  0  0  0  0  0  0  0  0  0  0
  -18.4502  -22.1447  -38.1631 H   0  0  0  0  0  0  0  0  0  0  0  0
  -19.6574  -22.8279  -39.2568 H   0  0  0  0  0  0  0  0  0  0  0  0
   -5.6401  -36.0636  -31.8737 H   0  0  0  0  0  0  0  0  0  0  0  0
   -4.0677  -36.5611  -32.5368 H   0  0  0  0  0  0  0  0  0  0  0  0
   -5.5693  -37.2146  -33.2264 H   0  0  0  0  0  0  0  0  0  0  0  0
  -18.6866  -25.1158  -38.8567 H   0  0  0  0  0  0  0  0  0  0  0  0
  -19.2901  -24.3741  -37.3857 H   0  0  0  0  0  0  0  0  0  0  0  0
  -17.0702  -23.7543  -36.6443 H   0  0  0  0  0  0  0  0  0  0  0  0
  -16.3544  -24.2247  -38.1700 H   0  0  0  0  0  0  0  0  0  0  0  0
  -16.7267  -26.5645  -37.7673 H   0  0  0  0  0  0  0  0  0  0  0  0
  -17.7517  -26.2552  -36.3826 H   0  0  0  0  0  0  0  0  0  0  0  0
  -15.8024  -25.3916  -35.0920 H   0  0  0  0  0  0  0  0  0  0  0  0
  -15.5998  -27.0477  -35.6349 H   0  0  0  0  0  0  0  0  0  0  0  0
  -14.2865  -24.5552  -36.8040 H   0  0  0  0  0  0  0  0  0  0  0  0
  -14.2796  -26.1054  -37.6505 H   0  0  0  0  0  0  0  0  0  0  0  0
  -13.2069  -25.6582  -34.8110 H   0  0  0  0  0  0  0  0  0  0  0  0
  -13.1819  -27.1795  -35.6838 H   0  0  0  0  0  0  0  0  0  0  0  0
  -11.7674  -24.6780  -36.6888 H   0  0  0  0  0  0  0  0  0  0  0  0
  -11.6955  -26.2836  -37.3944 H   0  0  0  0  0  0  0  0  0  0  0  0
  -10.7236  -25.7450  -34.5497 H   0  0  0  0  0  0  0  0  0  0  0  0
   -9.7174  -25.4486  -35.9550 H   0  0  0  0  0  0  0  0  0  0  0  0
  -10.9468  -28.1559  -35.2112 H   0  0  0  0  0  0  0  0  0  0  0  0
   -9.9808  -27.8473  -36.6571 H   0  0  0  0  0  0  0  0  0  0  0  0
   -9.1054  -27.7529  -33.7356 H   0  0  0  0  0  0  0  0  0  0  0  0
   -8.1532  -26.9633  -34.9954 H   0  0  0  0  0  0  0  0  0  0  0  0
   -8.1208  -29.1962  -36.2508 H   0  0  0  0  0  0  0  0  0  0  0  0
   -8.8893  -29.9266  -34.8390 H   0  0  0  0  0  0  0  0  0  0  0  0
   -6.2138  -28.4320  -34.8144 H   0  0  0  0  0  0  0  0  0  0  0  0
   -6.9563  -29.1936  -33.4121 H   0  0  0  0  0  0  0  0  0  0  0  0
   -5.9655  -30.5709  -35.9463 H   0  0  0  0  0  0  0  0  0  0  0  0
   -6.8015  -31.4229  -34.6530 H   0  0  0  0  0  0  0  0  0  0  0  0
   -4.9966  -30.9946  -33.0787 H   0  0  0  0  0  0  0  0  0  0  0  0
   -4.2358  -29.8259  -34.1616 H   0  0  0  0  0  0  0  0  0  0  0  0
   -3.7919  -31.7110  -35.7856 H   0  0  0  0  0  0  0  0  0  0  0  0
   -3.0029  -31.9765  -34.2207 H   0  0  0  0  0  0  0  0  0  0  0  0
   -5.7745  -35.3002  -34.5259 H   0  0  0  0  0  0  0  0  0  0  0  0
   -5.2644  -33.4506  -35.3681 H   0  0  0  0  0  0  0  0  0  0  0  0
  1 19  1  0  0  0  0
  1 20  1  0  0  0  0
  1 21  2  0  0  0  0
  2  4  1  0  0  0  0
  3 19  1  0  0  0  0
  4  5  1  0  0  0  0
  5  6  1  0  0  0  0
  6  7  1  0  0  0  0
  7  8  1  0  0  0  0
  8  9  1  0  0  0  0
  9 10  1  0  0  0  0
 10 11  1  0  0  0  0
 11 12  1  0  0  0  0
 12 13  1  0  0  0  0
 13 14  1  0  0  0  0
 14 15  1  0  0  0  0
 15 16  1  0  0  0  0
 16 17  1  0  0  0  0
 17 18  1  0  0  0  0
 18 20  1  0  0  0  0
  2 22  1  0  0  0  0
  2 23  1  0  0  0  0
  2 24  1  0  0  0  0
  3 25  1  0  0  0  0
  3 26  1  0  0  0  0
  3 27  1  0  0  0  0
  4 28  1  0  0  0  0
  4 29  1  0  0  0  0
  5 30  1  0  0  0  0
  5 31  1  0  0  0  0
  6 32  1  0  0  0  0
  6 33  1  0  0  0  0
  7 34  1  0  0  0  0
  7 35  1  0  0  0  0
  8 36  1  0  0  0  0
  8 37  1  0  0  0  0
  9 38  1  0  0  0  0
  9 39  1  0  0  0  0
 10 40  1  0  0  0  0
 10 41  1  0  0  0  0
 11 42  1  0  0  0  0
 11 43  1  0  0  0  0
 12 44  1  0  0  0  0
 12 45  1  0  0  0  0
 13 46  1  0  0  0  0
 13 47  1  0  0  0  0
 14 48  1  0  0  0  0
 14 49  1  0  0  0  0
 15 50  1  0  0  0  0
 15 51  1  0  0  0  0
 16 52  1  0  0  0  0
 16 53  1  0  0  0  0
 17 54  1  0  0  0  0
 17 55  1  0  0  0  0
 18 56  1  0  0  0  0
 18 57  1  0  0  0  0
 19 58  1  0  0  0  0
 20 59  1  0  0  0  0
M  END
> <Name>
IA_102.cdx

> <SourceTag>
IA_102

> <Gold.Version>
5.2

> <Gold.Id.Protein>
6HGV|6HGV_protein|mol2

> <Gold.Goldscore.Fitness>
68.2349

> <Gold.Goldscore.Internal.Vdw>
-5.6886

> <Gold.Goldscore.Internal.Torsion>
-4.1120

> <Gold.Goldscore.External.Vdw>
51.3644

> <Gold.Goldscore.Internal.HBond>
0.0000

> <Gold.Goldscore.External.HBond>
0.0000

> <Gold.Goldscore.Internal.Correction>
-7.4094

> <Gold.Goldscore.Internal.Vdw.Weighted>
-5.6886

> <Gold.Goldscore.Internal.Torsion.Weighted>
-4.1120

> <Gold.Goldscore.External.Vdw.Weighted>
70.6261

> <Gold.Goldscore.Internal.HBond.Weighted>
0.0000

> <Gold.Goldscore.External.HBond.Weighted>
0.0000

> <Gold.Goldscore.Internal.Correction.Weighted>
-7.4094

> <Gold.Protein.RotatedTorsions>
[ 3781 1176 1175 1172 ] final -140.06 input   60.00 | X-H torsion
[ 3847 1247 1246 1244 ] final   91.67 input   60.00 | X-H torsion
[ 4507 1931 1930 1928 ] final   89.84 input   60.00 | X-H torsion
[ 3677 1070 1069 1066 ] final  -98.79 input   60.00 | X-H torsion
[ 3525  925  924  922 ] final   13.56 input   59.99 | X-H torsion
[ 4531 1957 1955 1953 ] final   97.27 input   60.00 | X-H torsion

> <Gold.Protein.ActiveResidues>
 PHE267  PRO268  MET310  ASP335  TRP336  MET339  TYR343  THR360  PRO361  ILE363
 PRO371  SER374  ILE375  ASN378  PHE381  TYR383  GLN384  PHE387  LEU408  LEU417
 MET419  LEU428  TYR466  MET469  ASN472  ASP496  VAL498  LEU499  MET503  HIS524
 TRP525

> <Gold.Protein.RotatedAtoms>
   -3.4562  -29.5923  -30.6395 H   0  0  0  0  0  0  0  0  0  0  0  0  # atno 3525 bound_to 925
  -11.7526  -23.7617  -31.4125 H   0  0  0  0  0  0  0  0  0  0  0  0  # atno 3677 bound_to 1070
   -9.3120  -36.3206  -33.4663 H   0  0  0  0  0  0  0  0  0  0  0  0  # atno 3781 bound_to 1176
  -14.4650  -28.6707  -37.5616 H   0  0  0  0  0  0  0  0  0  0  0  0  # atno 3847 bound_to 1247
  -12.4622  -24.2594  -38.9945 H   0  0  0  0  0  0  0  0  0  0  0  0  # atno 4507 bound_to 1931
   -2.7101  -33.8975  -36.7411 H   0  0  0  0  0  0  0  0  0  0  0  0  # atno 4531 bound_to 1957
  -10.1178  -37.2531  -32.4037 LP  0  0  0  0  0  0  0  0  0  0  0  0  # atno 5205 bound_to 1176
  -10.6861  -37.0633  -33.9228 LP  0  0  0  0  0  0  0  0  0  0  0  0  # atno 5206 bound_to 1176
  -15.9874  -28.3520  -37.0833 LP  0  0  0  0  0  0  0  0  0  0  0  0  # atno 5215 bound_to 1247
  -15.1172  -27.2103  -37.8616 LP  0  0  0  0  0  0  0  0  0  0  0  0  # atno 5216 bound_to 1247
  -13.5384  -25.3786  -39.4816 LP  0  0  0  0  0  0  0  0  0  0  0  0  # atno 5217 bound_to 1931
  -13.1985  -24.0984  -40.4367 LP  0  0  0  0  0  0  0  0  0  0  0  0  # atno 5218 bound_to 1931
  -11.3207  -22.3155  -30.8042 LP  0  0  0  0  0  0  0  0  0  0  0  0  # atno 5224 bound_to 1070
  -12.7821  -22.9510  -30.4476 LP  0  0  0  0  0  0  0  0  0  0  0  0  # atno 5225 bound_to 1070

$$$$
IA_102.cdx|SeH_inactivess_minimized|sdf|4|dock7
  -GOLD-   4172118263D 1   1.00000     0.00000

 59 58  0  0  0  0  0  0  0  0  1 V2000
  -22.6474  -22.6538  -38.4731 C   0  0  0  0  0  0  0  0  0  0  0  0
   -5.0920  -32.7496  -35.5507 C   0  0  0  0  0  0  0  0  0  0  0  0
  -24.9371  -21.6884  -38.2447 C   0  0  0  0  0  0  0  0  0  0  0  0
   -4.7195  -31.3430  -35.1092 C   0  0  0  0  0  0  0  0  0  0  0  0
   -5.8774  -30.5800  -34.4616 C   0  0  0  0  0  0  0  0  0  0  0  0
   -7.0123  -30.1698  -35.4063 C   0  0  0  0  0  0  0  0  0  0  0  0
   -8.0855  -29.2594  -34.8017 C   0  0  0  0  0  0  0  0  0  0  0  0
   -9.1414  -28.8084  -35.8140 C   0  0  0  0  0  0  0  0  0  0  0  0
  -10.2970  -28.0834  -35.1199 C   0  0  0  0  0  0  0  0  0  0  0  0
  -11.1738  -27.2726  -36.0793 C   0  0  0  0  0  0  0  0  0  0  0  0
  -12.6254  -27.0573  -35.6394 C   0  0  0  0  0  0  0  0  0  0  0  0
  -13.4055  -26.1085  -36.5515 C   0  0  0  0  0  0  0  0  0  0  0  0
  -14.8198  -25.8667  -36.0190 C   0  0  0  0  0  0  0  0  0  0  0  0
  -15.6763  -25.1113  -37.0380 C   0  0  0  0  0  0  0  0  0  0  0  0
  -17.1471  -25.0894  -36.6164 C   0  0  0  0  0  0  0  0  0  0  0  0
  -18.0664  -24.4185  -37.6419 C   0  0  0  0  0  0  0  0  0  0  0  0
  -19.5385  -24.3980  -37.2171 C   0  0  0  0  0  0  0  0  0  0  0  0
  -20.4485  -23.8095  -38.2916 C   0  0  0  0  0  0  0  0  0  0  0  0
  -23.8347  -22.4894  -37.7648 N   0  0  0  0  0  0  0  0  0  0  0  0
  -21.7507  -23.4747  -37.7857 N   0  0  0  0  0  0  0  0  0  0  0  0
  -22.4127  -22.1418  -39.5670 O   0  0  0  0  0  0  0  0  0  0  0  0
   -5.5384  -33.3146  -34.7265 H   0  0  0  0  0  0  0  0  0  0  0  0
   -4.1988  -33.2871  -35.8850 H   0  0  0  0  0  0  0  0  0  0  0  0
   -5.8006  -32.7344  -36.3839 H   0  0  0  0  0  0  0  0  0  0  0  0
  -25.6752  -21.5506  -37.4503 H   0  0  0  0  0  0  0  0  0  0  0  0
  -25.4207  -22.1805  -39.0929 H   0  0  0  0  0  0  0  0  0  0  0  0
  -24.5791  -20.7067  -38.5665 H   0  0  0  0  0  0  0  0  0  0  0  0
   -4.3229  -30.7839  -35.9636 H   0  0  0  0  0  0  0  0  0  0  0  0
   -3.9027  -31.4123  -34.3804 H   0  0  0  0  0  0  0  0  0  0  0  0
   -5.4754  -29.6879  -33.9669 H   0  0  0  0  0  0  0  0  0  0  0  0
   -6.3043  -31.1981  -33.6614 H   0  0  0  0  0  0  0  0  0  0  0  0
   -7.4934  -31.0823  -35.7810 H   0  0  0  0  0  0  0  0  0  0  0  0
   -6.5885  -29.6718  -36.2864 H   0  0  0  0  0  0  0  0  0  0  0  0
   -8.5712  -29.7604  -33.9563 H   0  0  0  0  0  0  0  0  0  0  0  0
   -7.5852  -28.3748  -34.3879 H   0  0  0  0  0  0  0  0  0  0  0  0
   -9.5277  -29.6803  -36.3507 H   0  0  0  0  0  0  0  0  0  0  0  0
   -8.6813  -28.1435  -36.5545 H   0  0  0  0  0  0  0  0  0  0  0  0
  -10.9114  -28.8053  -34.5696 H   0  0  0  0  0  0  0  0  0  0  0  0
   -9.8893  -27.3939  -34.3697 H   0  0  0  0  0  0  0  0  0  0  0  0
  -11.1797  -27.7684  -37.0579 H   0  0  0  0  0  0  0  0  0  0  0  0
  -10.7023  -26.2940  -36.2339 H   0  0  0  0  0  0  0  0  0  0  0  0
  -12.6541  -26.6889  -34.6075 H   0  0  0  0  0  0  0  0  0  0  0  0
  -13.1239  -28.0349  -35.6287 H   0  0  0  0  0  0  0  0  0  0  0  0
  -12.8844  -25.1476  -36.6278 H   0  0  0  0  0  0  0  0  0  0  0  0
  -13.4603  -26.5316  -37.5617 H   0  0  0  0  0  0  0  0  0  0  0  0
  -14.7674  -25.2923  -35.0859 H   0  0  0  0  0  0  0  0  0  0  0  0
  -15.2923  -26.8276  -35.7819 H   0  0  0  0  0  0  0  0  0  0  0  0
  -15.5822  -25.5878  -38.0211 H   0  0  0  0  0  0  0  0  0  0  0  0
  -15.2970  -24.0879  -37.1343 H   0  0  0  0  0  0  0  0  0  0  0  0
  -17.4926  -26.1206  -36.4728 H   0  0  0  0  0  0  0  0  0  0  0  0
  -17.2478  -24.5855  -35.6474 H   0  0  0  0  0  0  0  0  0  0  0  0
  -17.9674  -24.9638  -38.5882 H   0  0  0  0  0  0  0  0  0  0  0  0
  -17.7213  -23.3946  -37.8302 H   0  0  0  0  0  0  0  0  0  0  0  0
  -19.6507  -23.7925  -36.3112 H   0  0  0  0  0  0  0  0  0  0  0  0
  -19.8652  -25.4159  -36.9713 H   0  0  0  0  0  0  0  0  0  0  0  0
  -20.0125  -22.8856  -38.6849 H   0  0  0  0  0  0  0  0  0  0  0  0
  -20.5805  -24.5058  -39.1257 H   0  0  0  0  0  0  0  0  0  0  0  0
  -23.9305  -22.9550  -36.8678 H   0  0  0  0  0  0  0  0  0  0  0  0
  -22.0192  -23.8139  -36.8635 H   0  0  0  0  0  0  0  0  0  0  0  0
  1 19  1  0  0  0  0
  1 20  1  0  0  0  0
  1 21  2  0  0  0  0
  2  4  1  0  0  0  0
  3 19  1  0  0  0  0
  4  5  1  0  0  0  0
  5  6  1  0  0  0  0
  6  7  1  0  0  0  0
  7  8  1  0  0  0  0
  8  9  1  0  0  0  0
  9 10  1  0  0  0  0
 10 11  1  0  0  0  0
 11 12  1  0  0  0  0
 12 13  1  0  0  0  0
 13 14  1  0  0  0  0
 14 15  1  0  0  0  0
 15 16  1  0  0  0  0
 16 17  1  0  0  0  0
 17 18  1  0  0  0  0
 18 20  1  0  0  0  0
  2 22  1  0  0  0  0
  2 23  1  0  0  0  0
  2 24  1  0  0  0  0
  3 25  1  0  0  0  0
  3 26  1  0  0  0  0
  3 27  1  0  0  0  0
  4 28  1  0  0  0  0
  4 29  1  0  0  0  0
  5 30  1  0  0  0  0
  5 31  1  0  0  0  0
  6 32  1  0  0  0  0
  6 33  1  0  0  0  0
  7 34  1  0  0  0  0
  7 35  1  0  0  0  0
  8 36  1  0  0  0  0
  8 37  1  0  0  0  0
  9 38  1  0  0  0  0
  9 39  1  0  0  0  0
 10 40  1  0  0  0  0
 10 41  1  0  0  0  0
 11 42  1  0  0  0  0
 11 43  1  0  0  0  0
 12 44  1  0  0  0  0
 12 45  1  0  0  0  0
 13 46  1  0  0  0  0
 13 47  1  0  0  0  0
 14 48  1  0  0  0  0
 14 49  1  0  0  0  0
 15 50  1  0  0  0  0
 15 51  1  0  0  0  0
 16 52  1  0  0  0  0
 16 53  1  0  0  0  0
 17 54  1  0  0  0  0
 17 55  1  0  0  0  0
 18 56  1  0  0  0  0
 18 57  1  0  0  0  0
 19 58  1  0  0  0  0
 20 59  1  0  0  0  0
M  END
> <Name>
IA_102.cdx

> <SourceTag>
IA_102

> <Gold.Version>
5.2

> <Gold.Id.Protein>
6HGV|6HGV_protein|mol2

> <Gold.Goldscore.Fitness>
67.7347

> <Gold.Goldscore.Internal.Vdw>
-5.9596

> <Gold.Goldscore.Internal.Torsion>
-4.6466

> <Gold.Goldscore.External.Vdw>
51.6001

> <Gold.Goldscore.Internal.HBond>
0.0000

> <Gold.Goldscore.External.HBond>
0.0000

> <Gold.Goldscore.Internal.Correction>
-7.3907

> <Gold.Goldscore.Internal.Vdw.Weighted>
-5.9596

> <Gold.Goldscore.Internal.Torsion.Weighted>
-4.6466

> <Gold.Goldscore.External.Vdw.Weighted>
70.9502

> <Gold.Goldscore.Internal.HBond.Weighted>
0.0000

> <Gold.Goldscore.External.HBond.Weighted>
0.0000

> <Gold.Goldscore.Internal.Correction.Weighted>
-7.3907

> <Gold.Protein.RotatedTorsions>
[ 3781 1176 1175 1172 ] final  -52.57 input   60.00 | X-H torsion
[ 3847 1247 1246 1244 ] final   67.84 input   60.00 | X-H torsion
[ 4507 1931 1930 1928 ] final   94.28 input   60.00 | X-H torsion
[ 3677 1070 1069 1066 ] final   61.33 input   60.00 | X-H torsion
[ 3525  925  924  922 ] final   22.03 input   59.99 | X-H torsion
[ 4531 1957 1955 1953 ] final  -78.33 input   60.00 | X-H torsion

> <Gold.Protein.ActiveResidues>
 PHE267  PRO268  MET310  ASP335  TRP336  MET339  TYR343  THR360  PRO361  ILE363
 PRO371  SER374  ILE375  ASN378  PHE381  TYR383  GLN384  PHE387  LEU408  LEU417
 MET419  LEU428  TYR466  MET469  ASN472  ASP496  VAL498  LEU499  MET503  HIS524
 TRP525

> <Gold.Protein.RotatedAtoms>
   -3.3522  -29.6301  -30.7225 H   0  0  0  0  0  0  0  0  0  0  0  0  # atno 3525 bound_to 925
  -12.4219  -22.4306  -30.3254 H   0  0  0  0  0  0  0  0  0  0  0  0  # atno 3677 bound_to 1070
  -10.3299  -36.7459  -34.1441 H   0  0  0  0  0  0  0  0  0  0  0  0  # atno 3781 bound_to 1176
  -14.7282  -28.8847  -37.3764 H   0  0  0  0  0  0  0  0  0  0  0  0  # atno 3847 bound_to 1247
  -12.4489  -24.2035  -39.0388 H   0  0  0  0  0  0  0  0  0  0  0  0  # atno 4507 bound_to 1931
   -1.7073  -32.3262  -36.9046 H   0  0  0  0  0  0  0  0  0  0  0  0  # atno 4531 bound_to 1957
   -9.2461  -36.4617  -32.9641 LP  0  0  0  0  0  0  0  0  0  0  0  0  # atno 5205 bound_to 1176
  -10.5326  -37.4264  -32.6800 LP  0  0  0  0  0  0  0  0  0  0  0  0  # atno 5206 bound_to 1176
  -16.0727  -27.9873  -37.1893 LP  0  0  0  0  0  0  0  0  0  0  0  0  # atno 5215 bound_to 1247
  -14.7667  -27.3594  -37.9421 LP  0  0  0  0  0  0  0  0  0  0  0  0  # atno 5216 bound_to 1247
  -13.5039  -25.3832  -39.4174 LP  0  0  0  0  0  0  0  0  0  0  0  0  # atno 5217 bound_to 1931
  -13.2463  -24.1500  -40.4563 LP  0  0  0  0  0  0  0  0  0  0  0  0  # atno 5218 bound_to 1931
  -12.3428  -23.8246  -31.1612 LP  0  0  0  0  0  0  0  0  0  0  0  0  # atno 5224 bound_to 1070
  -11.0860  -22.7823  -31.1854 LP  0  0  0  0  0  0  0  0  0  0  0  0  # atno 5225 bound_to 1070

$$$$
IA_102.cdx|SeH_inactivess_minimized|sdf|4|dock3
  -GOLD-   4172118253D 1   1.00000     0.00000

 59 58  0  0  0  0  0  0  0  0  1 V2000
  -22.3420  -22.6189  -38.6816 C   0  0  0  0  0  0  0  0  0  0  0  0
   -4.1483  -31.7284  -35.1964 C   0  0  0  0  0  0  0  0  0  0  0  0
  -24.7469  -21.9558  -38.6183 C   0  0  0  0  0  0  0  0  0  0  0  0
   -4.4184  -30.8707  -33.9702 C   0  0  0  0  0  0  0  0  0  0  0  0
   -5.9079  -30.6534  -33.6936 C   0  0  0  0  0  0  0  0  0  0  0  0
   -6.6055  -29.6235  -34.5889 C   0  0  0  0  0  0  0  0  0  0  0  0
   -8.1299  -29.5518  -34.4582 C   0  0  0  0  0  0  0  0  0  0  0  0
   -8.7489  -28.3649  -35.2007 C   0  0  0  0  0  0  0  0  0  0  0  0
  -10.2351  -28.2185  -34.8649 C   0  0  0  0  0  0  0  0  0  0  0  0
  -10.9384  -27.1221  -35.6710 C   0  0  0  0  0  0  0  0  0  0  0  0
  -12.3530  -26.7560  -35.2108 C   0  0  0  0  0  0  0  0  0  0  0  0
  -13.1216  -25.9013  -36.2205 C   0  0  0  0  0  0  0  0  0  0  0  0
  -14.6252  -25.9269  -35.9366 C   0  0  0  0  0  0  0  0  0  0  0  0
  -15.4134  -25.2317  -37.0492 C   0  0  0  0  0  0  0  0  0  0  0  0
  -16.9163  -25.2589  -36.7626 C   0  0  0  0  0  0  0  0  0  0  0  0
  -17.7367  -24.3904  -37.7215 C   0  0  0  0  0  0  0  0  0  0  0  0
  -19.2231  -24.3188  -37.3562 C   0  0  0  0  0  0  0  0  0  0  0  0
  -20.0212  -23.4492  -38.3237 C   0  0  0  0  0  0  0  0  0  0  0  0
  -23.5723  -22.5595  -38.0325 N   0  0  0  0  0  0  0  0  0  0  0  0
  -21.3782  -23.2533  -37.8948 N   0  0  0  0  0  0  0  0  0  0  0  0
  -22.1261  -22.1699  -39.8066 O   0  0  0  0  0  0  0  0  0  0  0  0
   -3.0800  -31.9442  -35.2971 H   0  0  0  0  0  0  0  0  0  0  0  0
   -4.4745  -31.2044  -36.1005 H   0  0  0  0  0  0  0  0  0  0  0  0
   -4.6904  -32.6774  -35.1498 H   0  0  0  0  0  0  0  0  0  0  0  0
  -24.4904  -20.9922  -39.0659 H   0  0  0  0  0  0  0  0  0  0  0  0
  -25.5113  -21.7962  -37.8530 H   0  0  0  0  0  0  0  0  0  0  0  0
  -25.1587  -22.6061  -39.3948 H   0  0  0  0  0  0  0  0  0  0  0  0
   -3.9042  -29.9092  -34.0752 H   0  0  0  0  0  0  0  0  0  0  0  0
   -3.9746  -31.3636  -33.0966 H   0  0  0  0  0  0  0  0  0  0  0  0
   -6.0302  -30.3644  -32.6430 H   0  0  0  0  0  0  0  0  0  0  0  0
   -6.4312  -31.6120  -33.8023 H   0  0  0  0  0  0  0  0  0  0  0  0
   -6.3507  -29.8478  -35.6325 H   0  0  0  0  0  0  0  0  0  0  0  0
   -6.1913  -28.6285  -34.3867 H   0  0  0  0  0  0  0  0  0  0  0  0
   -8.5820  -30.4866  -34.8092 H   0  0  0  0  0  0  0  0  0  0  0  0
   -8.3750  -29.4740  -33.3914 H   0  0  0  0  0  0  0  0  0  0  0  0
   -8.6311  -28.5081  -36.2792 H   0  0  0  0  0  0  0  0  0  0  0  0
   -8.2180  -27.4443  -34.9309 H   0  0  0  0  0  0  0  0  0  0  0  0
  -10.7453  -29.1775  -35.0116 H   0  0  0  0  0  0  0  0  0  0  0  0
  -10.3404  -27.9756  -33.7999 H   0  0  0  0  0  0  0  0  0  0  0  0
  -10.9869  -27.4317  -36.7224 H   0  0  0  0  0  0  0  0  0  0  0  0
  -10.3137  -26.2204  -35.6451 H   0  0  0  0  0  0  0  0  0  0  0  0
  -12.3118  -26.2422  -34.2435 H   0  0  0  0  0  0  0  0  0  0  0  0
  -12.9043  -27.6890  -35.0378 H   0  0  0  0  0  0  0  0  0  0  0  0
  -12.7691  -24.8646  -36.1806 H   0  0  0  0  0  0  0  0  0  0  0  0
  -12.9326  -26.2717  -37.2352 H   0  0  0  0  0  0  0  0  0  0  0  0
  -14.8264  -25.4308  -34.9791 H   0  0  0  0  0  0  0  0  0  0  0  0
  -14.9633  -26.9659  -35.8404 H   0  0  0  0  0  0  0  0  0  0  0  0
  -15.2121  -25.7278  -38.0062 H   0  0  0  0  0  0  0  0  0  0  0  0
  -15.0661  -24.1965  -37.1395 H   0  0  0  0  0  0  0  0  0  0  0  0
  -17.2769  -26.2916  -36.8458 H   0  0  0  0  0  0  0  0  0  0  0  0
  -17.1026  -24.9424  -35.7291 H   0  0  0  0  0  0  0  0  0  0  0  0
  -17.6285  -24.8092  -38.7291 H   0  0  0  0  0  0  0  0  0  0  0  0
  -17.3144  -23.3786  -37.7533 H   0  0  0  0  0  0  0  0  0  0  0  0
  -19.3343  -23.8957  -36.3519 H   0  0  0  0  0  0  0  0  0  0  0  0
  -19.6457  -25.3307  -37.3323 H   0  0  0  0  0  0  0  0  0  0  0  0
  -19.5643  -22.4572  -38.3976 H   0  0  0  0  0  0  0  0  0  0  0  0
  -20.0453  -23.8887  -39.3258 H   0  0  0  0  0  0  0  0  0  0  0  0
  -23.6476  -22.9599  -37.1026 H   0  0  0  0  0  0  0  0  0  0  0  0
  -21.6424  -23.5502  -36.9568 H   0  0  0  0  0  0  0  0  0  0  0  0
  1 19  1  0  0  0  0
  1 20  1  0  0  0  0
  1 21  2  0  0  0  0
  2  4  1  0  0  0  0
  3 19  1  0  0  0  0
  4  5  1  0  0  0  0
  5  6  1  0  0  0  0
  6  7  1  0  0  0  0
  7  8  1  0  0  0  0
  8  9  1  0  0  0  0
  9 10  1  0  0  0  0
 10 11  1  0  0  0  0
 11 12  1  0  0  0  0
 12 13  1  0  0  0  0
 13 14  1  0  0  0  0
 14 15  1  0  0  0  0
 15 16  1  0  0  0  0
 16 17  1  0  0  0  0
 17 18  1  0  0  0  0
 18 20  1  0  0  0  0
  2 22  1  0  0  0  0
  2 23  1  0  0  0  0
  2 24  1  0  0  0  0
  3 25  1  0  0  0  0
  3 26  1  0  0  0  0
  3 27  1  0  0  0  0
  4 28  1  0  0  0  0
  4 29  1  0  0  0  0
  5 30  1  0  0  0  0
  5 31  1  0  0  0  0
  6 32  1  0  0  0  0
  6 33  1  0  0  0  0
  7 34  1  0  0  0  0
  7 35  1  0  0  0  0
  8 36  1  0  0  0  0
  8 37  1  0  0  0  0
  9 38  1  0  0  0  0
  9 39  1  0  0  0  0
 10 40  1  0  0  0  0
 10 41  1  0  0  0  0
 11 42  1  0  0  0  0
 11 43  1  0  0  0  0
 12 44  1  0  0  0  0
 12 45  1  0  0  0  0
 13 46  1  0  0  0  0
 13 47  1  0  0  0  0
 14 48  1  0  0  0  0
 14 49  1  0  0  0  0
 15 50  1  0  0  0  0
 15 51  1  0  0  0  0
 16 52  1  0  0  0  0
 16 53  1  0  0  0  0
 17 54  1  0  0  0  0
 17 55  1  0  0  0  0
 18 56  1  0  0  0  0
 18 57  1  0  0  0  0
 19 58  1  0  0  0  0
 20 59  1  0  0  0  0
M  END
> <Name>
IA_102.cdx

> <SourceTag>
IA_102

> <Gold.Version>
5.2

> <Gold.Id.Protein>
6HGV|6HGV_protein|mol2

> <Gold.Goldscore.Fitness>
66.5509

> <Gold.Goldscore.Internal.Vdw>
-6.3200

> <Gold.Goldscore.Internal.Torsion>
-3.9320

> <Gold.Goldscore.External.Vdw>
50.4680

> <Gold.Goldscore.Internal.HBond>
0.0000

> <Gold.Goldscore.External.HBond>
0.0000

> <Gold.Goldscore.Internal.Correction>
-7.4094

> <Gold.Goldscore.Internal.Vdw.Weighted>
-6.3200

> <Gold.Goldscore.Internal.Torsion.Weighted>
-3.9320

> <Gold.Goldscore.External.Vdw.Weighted>
69.3935

> <Gold.Goldscore.Internal.HBond.Weighted>
0.0000

> <Gold.Goldscore.External.HBond.Weighted>
0.0000

> <Gold.Goldscore.Internal.Correction.Weighted>
-7.4094

> <Gold.Protein.RotatedTorsions>
[ 3781 1176 1175 1172 ] final  104.91 input   60.00 | X-H torsion
[ 3847 1247 1246 1244 ] final   99.32 input   60.00 | X-H torsion
[ 4507 1931 1930 1928 ] final   81.26 input   60.00 | X-H torsion
[ 3677 1070 1069 1066 ] final  -94.18 input   60.00 | X-H torsion
[ 3525  925  924  922 ] final   28.72 input   59.99 | X-H torsion
[ 4531 1957 1955 1953 ] final  119.82 input   60.00 | X-H torsion

> <Gold.Protein.ActiveResidues>
 PHE267  PRO268  MET310  ASP335  TRP336  MET339  TYR343  THR360  PRO361  ILE363
 PRO371  SER374  ILE375  ASN378  PHE381  TYR383  GLN384  PHE387  LEU408  LEU417
 MET419  LEU428  TYR466  MET469  ASN472  ASP496  VAL498  LEU499  MET503  HIS524
 TRP525

> <Gold.Protein.RotatedAtoms>
   -3.2632  -29.6640  -30.7760 H   0  0  0  0  0  0  0  0  0  0  0  0  # atno 3525 bound_to 925
  -11.8207  -23.7886  -31.3944 H   0  0  0  0  0  0  0  0  0  0  0  0  # atno 3677 bound_to 1070
  -10.0471  -37.2138  -32.3910 H   0  0  0  0  0  0  0  0  0  0  0  0  # atno 3781 bound_to 1176
  -14.4050  -28.5783  -37.6205 H   0  0  0  0  0  0  0  0  0  0  0  0  # atno 3847 bound_to 1247
  -12.4980  -24.3724  -38.9200 H   0  0  0  0  0  0  0  0  0  0  0  0  # atno 4507 bound_to 1931
   -2.3816  -34.0452  -36.8061 H   0  0  0  0  0  0  0  0  0  0  0  0  # atno 4531 bound_to 1957
  -10.7242  -37.1096  -33.8671 LP  0  0  0  0  0  0  0  0  0  0  0  0  # atno 5205 bound_to 1176
   -9.3394  -36.3073  -33.5424 LP  0  0  0  0  0  0  0  0  0  0  0  0  # atno 5206 bound_to 1176
  -15.9297  -28.4620  -37.0638 LP  0  0  0  0  0  0  0  0  0  0  0  0  # atno 5215 bound_to 1247
  -15.2352  -27.1933  -37.8217 LP  0  0  0  0  0  0  0  0  0  0  0  0  # atno 5216 bound_to 1247
  -13.5967  -25.3561  -39.6080 LP  0  0  0  0  0  0  0  0  0  0  0  0  # atno 5217 bound_to 1931
  -13.1042  -24.0071  -40.3853 LP  0  0  0  0  0  0  0  0  0  0  0  0  # atno 5218 bound_to 1931
  -11.2749  -22.3556  -30.8496 LP  0  0  0  0  0  0  0  0  0  0  0  0  # atno 5224 bound_to 1070
  -12.7594  -22.8838  -30.4205 LP  0  0  0  0  0  0  0  0  0  0  0  0  # atno 5225 bound_to 1070

$$$$
IA_102.cdx|SeH_inactivess_minimized|sdf|4|dock6
  -GOLD-   4172118263D 1   1.00000     0.00000

 59 58  0  0  0  0  0  0  0  0  1 V2000
  -22.2321  -22.7212  -37.7787 C   0  0  0  0  0  0  0  0  0  0  0  0
   -4.4966  -32.1930  -34.8651 C   0  0  0  0  0  0  0  0  0  0  0  0
  -24.5842  -22.0052  -37.3516 C   0  0  0  0  0  0  0  0  0  0  0  0
   -5.5555  -31.1936  -35.3034 C   0  0  0  0  0  0  0  0  0  0  0  0
   -5.9039  -30.1624  -34.2276 C   0  0  0  0  0  0  0  0  0  0  0  0
   -6.9832  -29.1437  -34.6097 C   0  0  0  0  0  0  0  0  0  0  0  0
   -8.4268  -29.6532  -34.5608 C   0  0  0  0  0  0  0  0  0  0  0  0
   -9.4029  -28.7934  -35.3677 C   0  0  0  0  0  0  0  0  0  0  0  0
   -9.4432  -27.3585  -34.8364 C   0  0  0  0  0  0  0  0  0  0  0  0
  -10.3737  -26.4381  -35.6326 C   0  0  0  0  0  0  0  0  0  0  0  0
  -11.8717  -26.5983  -35.3550 C   0  0  0  0  0  0  0  0  0  0  0  0
  -12.7524  -25.6867  -36.2117 C   0  0  0  0  0  0  0  0  0  0  0  0
  -14.2368  -25.9150  -35.9175 C   0  0  0  0  0  0  0  0  0  0  0  0
  -15.1233  -25.1242  -36.8826 C   0  0  0  0  0  0  0  0  0  0  0  0
  -16.6067  -25.3545  -36.5860 C   0  0  0  0  0  0  0  0  0  0  0  0
  -17.5401  -24.4630  -37.4112 C   0  0  0  0  0  0  0  0  0  0  0  0
  -19.0047  -24.5409  -36.9676 C   0  0  0  0  0  0  0  0  0  0  0  0
  -19.9129  -23.6292  -37.7880 C   0  0  0  0  0  0  0  0  0  0  0  0
  -23.3627  -22.6742  -36.9674 N   0  0  0  0  0  0  0  0  0  0  0  0
  -21.1938  -23.4287  -37.1691 N   0  0  0  0  0  0  0  0  0  0  0  0
  -22.1529  -22.2052  -38.8928 O   0  0  0  0  0  0  0  0  0  0  0  0
   -4.2756  -32.9070  -35.6647 H   0  0  0  0  0  0  0  0  0  0  0  0
   -4.8495  -32.7569  -33.9957 H   0  0  0  0  0  0  0  0  0  0  0  0
   -3.5662  -31.6931  -34.5804 H   0  0  0  0  0  0  0  0  0  0  0  0
  -24.3761  -20.9649  -37.6145 H   0  0  0  0  0  0  0  0  0  0  0  0
  -25.3007  -22.0230  -36.5259 H   0  0  0  0  0  0  0  0  0  0  0  0
  -25.0324  -22.5036  -38.2155 H   0  0  0  0  0  0  0  0  0  0  0  0
   -6.4547  -31.7301  -35.6251 H   0  0  0  0  0  0  0  0  0  0  0  0
   -5.1841  -30.6581  -36.1858 H   0  0  0  0  0  0  0  0  0  0  0  0
   -4.9878  -29.6320  -33.9415 H   0  0  0  0  0  0  0  0  0  0  0  0
   -6.2364  -30.6915  -33.3253 H   0  0  0  0  0  0  0  0  0  0  0  0
   -6.7702  -28.7826  -35.6239 H   0  0  0  0  0  0  0  0  0  0  0  0
   -6.9009  -28.2669  -33.9563 H   0  0  0  0  0  0  0  0  0  0  0  0
   -8.4712  -30.6917  -34.9086 H   0  0  0  0  0  0  0  0  0  0  0  0
   -8.7455  -29.6673  -33.5109 H   0  0  0  0  0  0  0  0  0  0  0  0
  -10.4047  -29.2307  -35.3133 H   0  0  0  0  0  0  0  0  0  0  0  0
   -9.1034  -28.7873  -36.4223 H   0  0  0  0  0  0  0  0  0  0  0  0
   -9.7335  -27.3617  -33.7794 H   0  0  0  0  0  0  0  0  0  0  0  0
   -8.4324  -26.9329  -34.8748 H   0  0  0  0  0  0  0  0  0  0  0  0
  -10.2017  -26.6019  -36.7036 H   0  0  0  0  0  0  0  0  0  0  0  0
  -10.0859  -25.3987  -35.4310 H   0  0  0  0  0  0  0  0  0  0  0  0
  -12.0774  -26.4231  -34.2927 H   0  0  0  0  0  0  0  0  0  0  0  0
  -12.1417  -27.6439  -35.5500 H   0  0  0  0  0  0  0  0  0  0  0  0
  -12.5080  -24.6366  -36.0166 H   0  0  0  0  0  0  0  0  0  0  0  0
  -12.5546  -25.8762  -37.2736 H   0  0  0  0  0  0  0  0  0  0  0  0
  -14.4571  -25.6136  -34.8860 H   0  0  0  0  0  0  0  0  0  0  0  0
  -14.4672  -26.9842  -35.9988 H   0  0  0  0  0  0  0  0  0  0  0  0
  -14.9029  -25.4257  -37.9136 H   0  0  0  0  0  0  0  0  0  0  0  0
  -14.8832  -24.0587  -36.7963 H   0  0  0  0  0  0  0  0  0  0  0  0
  -16.8558  -26.4007  -36.8027 H   0  0  0  0  0  0  0  0  0  0  0  0
  -16.7998  -25.1995  -35.5176 H   0  0  0  0  0  0  0  0  0  0  0  0
  -17.4596  -24.7732  -38.4599 H   0  0  0  0  0  0  0  0  0  0  0  0
  -17.1934  -23.4235  -37.3622 H   0  0  0  0  0  0  0  0  0  0  0  0
  -19.0864  -24.2418  -35.9170 H   0  0  0  0  0  0  0  0  0  0  0  0
  -19.3568  -25.5773  -37.0397 H   0  0  0  0  0  0  0  0  0  0  0  0
  -19.4526  -22.6417  -37.8944 H   0  0  0  0  0  0  0  0  0  0  0  0
  -20.0834  -24.0353  -38.7900 H   0  0  0  0  0  0  0  0  0  0  0  0
  -23.3270  -23.1324  -36.0621 H   0  0  0  0  0  0  0  0  0  0  0  0
  -21.3407  -23.7795  -36.2241 H   0  0  0  0  0  0  0  0  0  0  0  0
  1 19  1  0  0  0  0
  1 20  1  0  0  0  0
  1 21  2  0  0  0  0
  2  4  1  0  0  0  0
  3 19  1  0  0  0  0
  4  5  1  0  0  0  0
  5  6  1  0  0  0  0
  6  7  1  0  0  0  0
  7  8  1  0  0  0  0
  8  9  1  0  0  0  0
  9 10  1  0  0  0  0
 10 11  1  0  0  0  0
 11 12  1  0  0  0  0
 12 13  1  0  0  0  0
 13 14  1  0  0  0  0
 14 15  1  0  0  0  0
 15 16  1  0  0  0  0
 16 17  1  0  0  0  0
 17 18  1  0  0  0  0
 18 20  1  0  0  0  0
  2 22  1  0  0  0  0
  2 23  1  0  0  0  0
  2 24  1  0  0  0  0
  3 25  1  0  0  0  0
  3 26  1  0  0  0  0
  3 27  1  0  0  0  0
  4 28  1  0  0  0  0
  4 29  1  0  0  0  0
  5 30  1  0  0  0  0
  5 31  1  0  0  0  0
  6 32  1  0  0  0  0
  6 33  1  0  0  0  0
  7 34  1  0  0  0  0
  7 35  1  0  0  0  0
  8 36  1  0  0  0  0
  8 37  1  0  0  0  0
  9 38  1  0  0  0  0
  9 39  1  0  0  0  0
 10 40  1  0  0  0  0
 10 41  1  0  0  0  0
 11 42  1  0  0  0  0
 11 43  1  0  0  0  0
 12 44  1  0  0  0  0
 12 45  1  0  0  0  0
 13 46  1  0  0  0  0
 13 47  1  0  0  0  0
 14 48  1  0  0  0  0
 14 49  1  0  0  0  0
 15 50  1  0  0  0  0
 15 51  1  0  0  0  0
 16 52  1  0  0  0  0
 16 53  1  0  0  0  0
 17 54  1  0  0  0  0
 17 55  1  0  0  0  0
 18 56  1  0  0  0  0
 18 57  1  0  0  0  0
 19 58  1  0  0  0  0
 20 59  1  0  0  0  0
M  END
> <Name>
IA_102.cdx

> <SourceTag>
IA_102

> <Gold.Version>
5.2

> <Gold.Id.Protein>
6HGV|6HGV_protein|mol2

> <Gold.Goldscore.Fitness>
66.0552

> <Gold.Goldscore.Internal.Vdw>
-6.9870

> <Gold.Goldscore.Internal.Torsion>
-3.9738

> <Gold.Goldscore.External.Vdw>
50.6230

> <Gold.Goldscore.Internal.HBond>
0.0000

> <Gold.Goldscore.External.HBond>
0.0000

> <Gold.Goldscore.Internal.Correction>
-7.4094

> <Gold.Goldscore.Internal.Vdw.Weighted>
-6.9870

> <Gold.Goldscore.Internal.Torsion.Weighted>
-3.9738

> <Gold.Goldscore.External.Vdw.Weighted>
69.6066

> <Gold.Goldscore.Internal.HBond.Weighted>
0.0000

> <Gold.Goldscore.External.HBond.Weighted>
0.0000

> <Gold.Goldscore.Internal.Correction.Weighted>
-7.4094

> <Gold.Protein.RotatedTorsions>
[ 3781 1176 1175 1172 ] final  149.64 input   60.00 | X-H torsion
[ 3847 1247 1246 1244 ] final   33.79 input   60.00 | X-H torsion
[ 4507 1931 1930 1928 ] final   97.86 input   60.00 | X-H torsion
[ 3677 1070 1069 1066 ] final  -69.58 input   60.00 | X-H torsion
[ 3525  925  924  922 ] final   55.01 input   59.99 | X-H torsion
[ 4531 1957 1955 1953 ] final  -47.60 input   60.00 | X-H torsion

> <Gold.Protein.ActiveResidues>
 PHE267  PRO268  MET310  ASP335  TRP336  MET339  TYR343  THR360  PRO361  ILE363
 PRO371  SER374  ILE375  ASN378  PHE381  TYR383  GLN384  PHE387  LEU408  LEU417
 MET419  LEU428  TYR466  MET469  ASN472  ASP496  VAL498  LEU499  MET503  HIS524
 TRP525

> <Gold.Protein.RotatedAtoms>
   -2.8797  -29.8225  -30.8711 H   0  0  0  0  0  0  0  0  0  0  0  0  # atno 3525 bound_to 925
  -12.1867  -23.8442  -31.2461 H   0  0  0  0  0  0  0  0  0  0  0  0  # atno 3677 bound_to 1070
   -9.4852  -36.7931  -32.5132 H   0  0  0  0  0  0  0  0  0  0  0  0  # atno 3781 bound_to 1176
  -15.2265  -28.9482  -37.1565 H   0  0  0  0  0  0  0  0  0  0  0  0  # atno 3847 bound_to 1247
  -12.4409  -24.1601  -39.0772 H   0  0  0  0  0  0  0  0  0  0  0  0  # atno 4507 bound_to 1931
   -2.1770  -32.1952  -36.8130 H   0  0  0  0  0  0  0  0  0  0  0  0  # atno 4531 bound_to 1957
  -10.8134  -37.4107  -33.2220 LP  0  0  0  0  0  0  0  0  0  0  0  0  # atno 5205 bound_to 1176
   -9.8161  -36.4298  -34.0645 LP  0  0  0  0  0  0  0  0  0  0  0  0  # atno 5206 bound_to 1176
  -15.9347  -27.5082  -37.4267 LP  0  0  0  0  0  0  0  0  0  0  0  0  # atno 5215 bound_to 1247
  -14.4029  -27.7745  -37.9261 LP  0  0  0  0  0  0  0  0  0  0  0  0  # atno 5216 bound_to 1247
  -13.4742  -25.3835  -39.3664 LP  0  0  0  0  0  0  0  0  0  0  0  0  # atno 5217 bound_to 1931
  -13.2842  -24.1936  -40.4685 LP  0  0  0  0  0  0  0  0  0  0  0  0  # atno 5218 bound_to 1931
  -11.1108  -22.6335  -31.0885 LP  0  0  0  0  0  0  0  0  0  0  0  0  # atno 5224 bound_to 1070
  -12.5549  -22.5499  -30.3309 LP  0  0  0  0  0  0  0  0  0  0  0  0  # atno 5225 bound_to 1070

$$$$
IA_102.cdx|SeH_inactivess_minimized|sdf|4|dock9
  -GOLD-   4172118273D 1   1.00000     0.00000

 59 58  0  0  0  0  0  0  0  0  1 V2000
  -21.3326  -23.2954  -36.7793 C   0  0  0  0  0  0  0  0  0  0  0  0
   -4.7625  -33.1449  -34.2477 C   0  0  0  0  0  0  0  0  0  0  0  0
  -23.4236  -22.2592  -35.8956 C   0  0  0  0  0  0  0  0  0  0  0  0
   -4.4610  -32.1122  -35.3223 C   0  0  0  0  0  0  0  0  0  0  0  0
   -5.0153  -30.7215  -35.0047 C   0  0  0  0  0  0  0  0  0  0  0  0
   -6.5422  -30.6184  -34.9242 C   0  0  0  0  0  0  0  0  0  0  0  0
   -7.1018  -29.2181  -34.6556 C   0  0  0  0  0  0  0  0  0  0  0  0
   -8.5703  -29.0623  -35.0582 C   0  0  0  0  0  0  0  0  0  0  0  0
   -9.0623  -27.6345  -34.8086 C   0  0  0  0  0  0  0  0  0  0  0  0
  -10.3364  -27.2832  -35.5831 C   0  0  0  0  0  0  0  0  0  0  0  0
  -10.7623  -25.8122  -35.5391 C   0  0  0  0  0  0  0  0  0  0  0  0
  -11.8051  -25.4466  -36.5971 C   0  0  0  0  0  0  0  0  0  0  0  0
  -13.1776  -26.0245  -36.2447 C   0  0  0  0  0  0  0  0  0  0  0  0
  -14.2908  -25.3402  -37.0417 C   0  0  0  0  0  0  0  0  0  0  0  0
  -15.6599  -25.5884  -36.4050 C   0  0  0  0  0  0  0  0  0  0  0  0
  -16.8238  -25.0052  -37.2126 C   0  0  0  0  0  0  0  0  0  0  0  0
  -18.1653  -25.0628  -36.4744 C   0  0  0  0  0  0  0  0  0  0  0  0
  -19.3400  -24.6700  -37.3658 C   0  0  0  0  0  0  0  0  0  0  0  0
  -22.4396  -23.3163  -35.9351 N   0  0  0  0  0  0  0  0  0  0  0  0
  -20.5437  -24.4364  -36.6171 N   0  0  0  0  0  0  0  0  0  0  0  0
  -21.0770  -22.3880  -37.5699 O   0  0  0  0  0  0  0  0  0  0  0  0
   -4.4411  -32.7921  -33.2628 H   0  0  0  0  0  0  0  0  0  0  0  0
   -4.2310  -34.0774  -34.4634 H   0  0  0  0  0  0  0  0  0  0  0  0
   -5.8308  -33.3757  -34.2012 H   0  0  0  0  0  0  0  0  0  0  0  0
  -23.9476  -22.1977  -36.8529 H   0  0  0  0  0  0  0  0  0  0  0  0
  -22.9393  -21.2992  -35.6971 H   0  0  0  0  0  0  0  0  0  0  0  0
  -24.1548  -22.4529  -35.1060 H   0  0  0  0  0  0  0  0  0  0  0  0
   -4.8420  -32.4652  -36.2867 H   0  0  0  0  0  0  0  0  0  0  0  0
   -3.3725  -32.0321  -35.4318 H   0  0  0  0  0  0  0  0  0  0  0  0
   -4.6422  -30.0160  -35.7566 H   0  0  0  0  0  0  0  0  0  0  0  0
   -4.5983  -30.3850  -34.0469 H   0  0  0  0  0  0  0  0  0  0  0  0
   -6.8905  -31.2955  -34.1337 H   0  0  0  0  0  0  0  0  0  0  0  0
   -6.9802  -30.9957  -35.8560 H   0  0  0  0  0  0  0  0  0  0  0  0
   -6.9769  -28.9596  -33.5978 H   0  0  0  0  0  0  0  0  0  0  0  0
   -6.4971  -28.4977  -35.2210 H   0  0  0  0  0  0  0  0  0  0  0  0
   -9.1822  -29.7646  -34.4838 H   0  0  0  0  0  0  0  0  0  0  0  0
   -8.6900  -29.3129  -36.1189 H   0  0  0  0  0  0  0  0  0  0  0  0
   -9.2209  -27.4786  -33.7353 H   0  0  0  0  0  0  0  0  0  0  0  0
   -8.2785  -26.9272  -35.1081 H   0  0  0  0  0  0  0  0  0  0  0  0
  -11.1634  -27.8935  -35.1993 H   0  0  0  0  0  0  0  0  0  0  0  0
  -10.1964  -27.5796  -36.6302 H   0  0  0  0  0  0  0  0  0  0  0  0
   -9.8844  -25.1641  -35.6424 H   0  0  0  0  0  0  0  0  0  0  0  0
  -11.1760  -25.6097  -34.5431 H   0  0  0  0  0  0  0  0  0  0  0  0
  -11.8883  -24.3573  -36.6820 H   0  0  0  0  0  0  0  0  0  0  0  0
  -11.4860  -25.8269  -37.5750 H   0  0  0  0  0  0  0  0  0  0  0  0
  -13.3643  -25.8985  -35.1711 H   0  0  0  0  0  0  0  0  0  0  0  0
  -13.1866  -27.1017  -36.4509 H   0  0  0  0  0  0  0  0  0  0  0  0
  -14.2897  -25.7176  -38.0713 H   0  0  0  0  0  0  0  0  0  0  0  0
  -14.0869  -24.2648  -37.0887 H   0  0  0  0  0  0  0  0  0  0  0  0
  -15.8191  -26.6698  -36.3110 H   0  0  0  0  0  0  0  0  0  0  0  0
  -15.6760  -25.1779  -35.3881 H   0  0  0  0  0  0  0  0  0  0  0  0
  -16.8984  -25.5704  -38.1494 H   0  0  0  0  0  0  0  0  0  0  0  0
  -16.5968  -23.9679  -37.4874 H   0  0  0  0  0  0  0  0  0  0  0  0
  -18.1445  -24.3759  -35.6213 H   0  0  0  0  0  0  0  0  0  0  0  0
  -18.3234  -26.0725  -36.0761 H   0  0  0  0  0  0  0  0  0  0  0  0
  -19.1106  -23.7411  -37.8978 H   0  0  0  0  0  0  0  0  0  0  0  0
  -19.5514  -25.4450  -38.1092 H   0  0  0  0  0  0  0  0  0  0  0  0
  -22.5612  -24.1128  -35.3176 H   0  0  0  0  0  0  0  0  0  0  0  0
  -20.8141  -25.1106  -35.9030 H   0  0  0  0  0  0  0  0  0  0  0  0
  1 19  1  0  0  0  0
  1 20  1  0  0  0  0
  1 21  2  0  0  0  0
  2  4  1  0  0  0  0
  3 19  1  0  0  0  0
  4  5  1  0  0  0  0
  5  6  1  0  0  0  0
  6  7  1  0  0  0  0
  7  8  1  0  0  0  0
  8  9  1  0  0  0  0
  9 10  1  0  0  0  0
 10 11  1  0  0  0  0
 11 12  1  0  0  0  0
 12 13  1  0  0  0  0
 13 14  1  0  0  0  0
 14 15  1  0  0  0  0
 15 16  1  0  0  0  0
 16 17  1  0  0  0  0
 17 18  1  0  0  0  0
 18 20  1  0  0  0  0
  2 22  1  0  0  0  0
  2 23  1  0  0  0  0
  2 24  1  0  0  0  0
  3 25  1  0  0  0  0
  3 26  1  0  0  0  0
  3 27  1  0  0  0  0
  4 28  1  0  0  0  0
  4 29  1  0  0  0  0
  5 30  1  0  0  0  0
  5 31  1  0  0  0  0
  6 32  1  0  0  0  0
  6 33  1  0  0  0  0
  7 34  1  0  0  0  0
  7 35  1  0  0  0  0
  8 36  1  0  0  0  0
  8 37  1  0  0  0  0
  9 38  1  0  0  0  0
  9 39  1  0  0  0  0
 10 40  1  0  0  0  0
 10 41  1  0  0  0  0
 11 42  1  0  0  0  0
 11 43  1  0  0  0  0
 12 44  1  0  0  0  0
 12 45  1  0  0  0  0
 13 46  1  0  0  0  0
 13 47  1  0  0  0  0
 14 48  1  0  0  0  0
 14 49  1  0  0  0  0
 15 50  1  0  0  0  0
 15 51  1  0  0  0  0
 16 52  1  0  0  0  0
 16 53  1  0  0  0  0
 17 54  1  0  0  0  0
 17 55  1  0  0  0  0
 18 56  1  0  0  0  0
 18 57  1  0  0  0  0
 19 58  1  0  0  0  0
 20 59  1  0  0  0  0
M  END
> <Name>
IA_102.cdx

> <SourceTag>
IA_102

> <Gold.Version>
5.2

> <Gold.Id.Protein>
6HGV|6HGV_protein|mol2

> <Gold.Goldscore.Fitness>
65.9953

> <Gold.Goldscore.Internal.Vdw>
-8.4277

> <Gold.Goldscore.Internal.Torsion>
-5.6190

> <Gold.Goldscore.External.Vdw>
52.8373

> <Gold.Goldscore.Internal.HBond>
0.0000

> <Gold.Goldscore.External.HBond>
0.0000

> <Gold.Goldscore.Internal.Correction>
-7.3907

> <Gold.Goldscore.Internal.Vdw.Weighted>
-8.4277

> <Gold.Goldscore.Internal.Torsion.Weighted>
-5.6190

> <Gold.Goldscore.External.Vdw.Weighted>
72.6513

> <Gold.Goldscore.Internal.HBond.Weighted>
0.0000

> <Gold.Goldscore.External.HBond.Weighted>
0.0000

> <Gold.Goldscore.Internal.Correction.Weighted>
-7.3907

> <Gold.Protein.RotatedTorsions>
[ 3781 1176 1175 1172 ] final   36.94 input   60.00 | X-H torsion
[ 3847 1247 1246 1244 ] final   67.12 input   60.00 | X-H torsion
[ 4507 1931 1930 1928 ] final  125.76 input   60.00 | X-H torsion
[ 3677 1070 1069 1066 ] final -103.56 input   60.00 | X-H torsion
[ 3525  925  924  922 ] final   17.35 input   59.99 | X-H torsion
[ 4531 1957 1955 1953 ] final  115.80 input   60.00 | X-H torsion

> <Gold.Protein.ActiveResidues>
 PHE267  PRO268  MET310  ASP335  TRP336  MET339  TYR343  THR360  PRO361  ILE363
 PRO371  SER374  ILE375  ASN378  PHE381  TYR383  GLN384  PHE387  LEU408  LEU417
 MET419  LEU428  TYR466  MET469  ASN472  ASP496  VAL498  LEU499  MET503  HIS524
 TRP525

> <Gold.Protein.RotatedAtoms>
   -3.4110  -29.6085  -30.6786 H   0  0  0  0  0  0  0  0  0  0  0  0  # atno 3525 bound_to 925
  -11.6837  -23.7288  -31.4277 H   0  0  0  0  0  0  0  0  0  0  0  0  # atno 3677 bound_to 1070
  -10.7762  -37.4309  -33.1100 H   0  0  0  0  0  0  0  0  0  0  0  0  # atno 3781 bound_to 1176
  -14.7377  -28.8892  -37.3710 H   0  0  0  0  0  0  0  0  0  0  0  0  # atno 3847 bound_to 1247
  -12.4623  -23.8896  -39.4379 H   0  0  0  0  0  0  0  0  0  0  0  0  # atno 4507 bound_to 1931
   -2.4438  -34.0287  -36.7940 H   0  0  0  0  0  0  0  0  0  0  0  0  # atno 4531 bound_to 1957
   -9.9154  -36.4789  -34.1104 LP  0  0  0  0  0  0  0  0  0  0  0  0  # atno 5205 bound_to 1176
   -9.4140  -36.7194  -32.5750 LP  0  0  0  0  0  0  0  0  0  0  0  0  # atno 5206 bound_to 1176
  -16.0730  -27.9762  -37.1934 LP  0  0  0  0  0  0  0  0  0  0  0  0  # atno 5215 bound_to 1247
  -14.7569  -27.3660  -37.9434 LP  0  0  0  0  0  0  0  0  0  0  0  0  # atno 5216 bound_to 1247
  -13.1981  -25.2796  -39.0205 LP  0  0  0  0  0  0  0  0  0  0  0  0  # atno 5217 bound_to 1931
  -13.5386  -24.5698  -40.4512 LP  0  0  0  0  0  0  0  0  0  0  0  0  # atno 5218 bound_to 1931
  -11.3723  -22.2788  -30.7579 LP  0  0  0  0  0  0  0  0  0  0  0  0  # atno 5224 bound_to 1070
  -12.7999  -23.0208  -30.4786 LP  0  0  0  0  0  0  0  0  0  0  0  0  # atno 5225 bound_to 1070

$$$$
IA_102.cdx|SeH_inactivess_minimized|sdf|4|dock4
  -GOLD-   4172118253D 1   1.00000     0.00000

 59 58  0  0  0  0  0  0  0  0  1 V2000
   -5.7693  -31.0281  -35.0228 C   0  0  0  0  0  0  0  0  0  0  0  0
  -24.0293  -25.7652  -37.6696 C   0  0  0  0  0  0  0  0  0  0  0  0
   -3.5569  -31.9149  -34.2839 C   0  0  0  0  0  0  0  0  0  0  0  0
  -22.5621  -25.4823  -37.9514 C   0  0  0  0  0  0  0  0  0  0  0  0
  -22.0650  -24.1707  -37.3394 C   0  0  0  0  0  0  0  0  0  0  0  0
  -20.5911  -23.8366  -37.5935 C   0  0  0  0  0  0  0  0  0  0  0  0
  -19.5731  -24.7702  -36.9315 C   0  0  0  0  0  0  0  0  0  0  0  0
  -18.1203  -24.4161  -37.2586 C   0  0  0  0  0  0  0  0  0  0  0  0
  -17.1474  -25.2421  -36.4136 C   0  0  0  0  0  0  0  0  0  0  0  0
  -15.6815  -25.0651  -36.8216 C   0  0  0  0  0  0  0  0  0  0  0  0
  -14.6570  -25.8457  -35.9921 C   0  0  0  0  0  0  0  0  0  0  0  0
  -13.2120  -25.6295  -36.4458 C   0  0  0  0  0  0  0  0  0  0  0  0
  -12.2350  -26.4319  -35.5834 C   0  0  0  0  0  0  0  0  0  0  0  0
  -10.7835  -26.0557  -35.8904 C   0  0  0  0  0  0  0  0  0  0  0  0
   -9.8091  -26.8594  -35.0267 C   0  0  0  0  0  0  0  0  0  0  0  0
   -9.5652  -28.2811  -35.5429 C   0  0  0  0  0  0  0  0  0  0  0  0
   -8.3698  -28.9724  -34.8786 C   0  0  0  0  0  0  0  0  0  0  0  0
   -8.1450  -30.3863  -35.4070 C   0  0  0  0  0  0  0  0  0  0  0  0
   -4.9915  -31.7969  -34.1611 N   0  0  0  0  0  0  0  0  0  0  0  0
   -7.1222  -31.0877  -34.6818 N   0  0  0  0  0  0  0  0  0  0  0  0
   -5.3251  -30.3770  -35.9675 O   0  0  0  0  0  0  0  0  0  0  0  0
  -24.6660  -24.9672  -38.0641 H   0  0  0  0  0  0  0  0  0  0  0  0
  -24.1985  -25.8308  -36.5900 H   0  0  0  0  0  0  0  0  0  0  0  0
  -24.3477  -26.7133  -38.1129 H   0  0  0  0  0  0  0  0  0  0  0  0
   -3.1726  -32.6173  -33.5397 H   0  0  0  0  0  0  0  0  0  0  0  0
   -3.0828  -30.9421  -34.1276 H   0  0  0  0  0  0  0  0  0  0  0  0
   -3.2915  -32.2781  -35.2805 H   0  0  0  0  0  0  0  0  0  0  0  0
  -22.3887  -25.4902  -39.0330 H   0  0  0  0  0  0  0  0  0  0  0  0
  -21.9640  -26.3035  -37.5376 H   0  0  0  0  0  0  0  0  0  0  0  0
  -22.2514  -24.1958  -36.2592 H   0  0  0  0  0  0  0  0  0  0  0  0
  -22.6752  -23.3455  -37.7284 H   0  0  0  0  0  0  0  0  0  0  0  0
  -20.4072  -22.8114  -37.2477 H   0  0  0  0  0  0  0  0  0  0  0  0
  -20.4032  -23.8264  -38.6738 H   0  0  0  0  0  0  0  0  0  0  0  0
  -19.7187  -24.7759  -35.8451 H   0  0  0  0  0  0  0  0  0  0  0  0
  -19.7783  -25.7923  -37.2740 H   0  0  0  0  0  0  0  0  0  0  0  0
  -17.9534  -23.3510  -37.0703 H   0  0  0  0  0  0  0  0  0  0  0  0
  -17.9280  -24.5961  -38.3229 H   0  0  0  0  0  0  0  0  0  0  0  0
  -17.2740  -24.9948  -35.3532 H   0  0  0  0  0  0  0  0  0  0  0  0
  -17.3999  -26.3055  -36.5120 H   0  0  0  0  0  0  0  0  0  0  0  0
  -15.4264  -23.9993  -36.7710 H   0  0  0  0  0  0  0  0  0  0  0  0
  -15.5791  -25.3556  -37.8746 H   0  0  0  0  0  0  0  0  0  0  0  0
  -14.8964  -26.9152  -36.0098 H   0  0  0  0  0  0  0  0  0  0  0  0
  -14.7558  -25.5278  -34.9465 H   0  0  0  0  0  0  0  0  0  0  0  0
  -13.0969  -25.9344  -37.4920 H   0  0  0  0  0  0  0  0  0  0  0  0
  -12.9637  -24.5629  -36.3873 H   0  0  0  0  0  0  0  0  0  0  0  0
  -12.3821  -27.5040  -35.7629 H   0  0  0  0  0  0  0  0  0  0  0  0
  -12.4457  -26.2491  -34.5227 H   0  0  0  0  0  0  0  0  0  0  0  0
  -10.6367  -24.9839  -35.7109 H   0  0  0  0  0  0  0  0  0  0  0  0
  -10.5842  -26.2385  -36.9522 H   0  0  0  0  0  0  0  0  0  0  0  0
   -8.8444  -26.3378  -34.9974 H   0  0  0  0  0  0  0  0  0  0  0  0
  -10.1762  -26.9012  -33.9941 H   0  0  0  0  0  0  0  0  0  0  0  0
   -9.3966  -28.2207  -36.6247 H   0  0  0  0  0  0  0  0  0  0  0  0
  -10.4693  -28.8848  -35.3977 H   0  0  0  0  0  0  0  0  0  0  0  0
   -8.5381  -29.0387  -33.7982 H   0  0  0  0  0  0  0  0  0  0  0  0
   -7.4651  -28.3712  -35.0312 H   0  0  0  0  0  0  0  0  0  0  0  0
   -9.0643  -30.9723  -35.3080 H   0  0  0  0  0  0  0  0  0  0  0  0
   -7.8603  -30.3751  -36.4638 H   0  0  0  0  0  0  0  0  0  0  0  0
   -5.4550  -32.2988  -33.4101 H   0  0  0  0  0  0  0  0  0  0  0  0
   -7.3975  -31.6923  -33.9095 H   0  0  0  0  0  0  0  0  0  0  0  0
  1 19  1  0  0  0  0
  1 20  1  0  0  0  0
  1 21  2  0  0  0  0
  2  4  1  0  0  0  0
  3 19  1  0  0  0  0
  4  5  1  0  0  0  0
  5  6  1  0  0  0  0
  6  7  1  0  0  0  0
  7  8  1  0  0  0  0
  8  9  1  0  0  0  0
  9 10  1  0  0  0  0
 10 11  1  0  0  0  0
 11 12  1  0  0  0  0
 12 13  1  0  0  0  0
 13 14  1  0  0  0  0
 14 15  1  0  0  0  0
 15 16  1  0  0  0  0
 16 17  1  0  0  0  0
 17 18  1  0  0  0  0
 18 20  1  0  0  0  0
  2 22  1  0  0  0  0
  2 23  1  0  0  0  0
  2 24  1  0  0  0  0
  3 25  1  0  0  0  0
  3 26  1  0  0  0  0
  3 27  1  0  0  0  0
  4 28  1  0  0  0  0
  4 29  1  0  0  0  0
  5 30  1  0  0  0  0
  5 31  1  0  0  0  0
  6 32  1  0  0  0  0
  6 33  1  0  0  0  0
  7 34  1  0  0  0  0
  7 35  1  0  0  0  0
  8 36  1  0  0  0  0
  8 37  1  0  0  0  0
  9 38  1  0  0  0  0
  9 39  1  0  0  0  0
 10 40  1  0  0  0  0
 10 41  1  0  0  0  0
 11 42  1  0  0  0  0
 11 43  1  0  0  0  0
 12 44  1  0  0  0  0
 12 45  1  0  0  0  0
 13 46  1  0  0  0  0
 13 47  1  0  0  0  0
 14 48  1  0  0  0  0
 14 49  1  0  0  0  0
 15 50  1  0  0  0  0
 15 51  1  0  0  0  0
 16 52  1  0  0  0  0
 16 53  1  0  0  0  0
 17 54  1  0  0  0  0
 17 55  1  0  0  0  0
 18 56  1  0  0  0  0
 18 57  1  0  0  0  0
 19 58  1  0  0  0  0
 20 59  1  0  0  0  0
M  END
> <Name>
IA_102.cdx

> <SourceTag>
IA_102

> <Gold.Version>
5.2

> <Gold.Id.Protein>
6HGV|6HGV_protein|mol2

> <Gold.Goldscore.Fitness>
65.7336

> <Gold.Goldscore.Internal.Vdw>
-5.7936

> <Gold.Goldscore.Internal.Torsion>
-2.9481

> <Gold.Goldscore.External.Vdw>
48.1490

> <Gold.Goldscore.Internal.HBond>
0.0000

> <Gold.Goldscore.External.HBond>
0.8611

> <Gold.Goldscore.Internal.Correction>
-7.4094

> <Gold.Goldscore.Hbonds>
donor molecule, donor type, donor heavy atom, donor atom, acceptor molecule, acceptor atom, score
      P1  H  1994  4571       L1    21  0.43

> <Gold.Goldscore.Internal.Vdw.Weighted>
-5.7936

> <Gold.Goldscore.Internal.Torsion.Weighted>
-2.9481

> <Gold.Goldscore.External.Vdw.Weighted>
66.2048

> <Gold.Goldscore.Internal.HBond.Weighted>
0.0000

> <Gold.Goldscore.External.HBond.Weighted>
0.8611

> <Gold.Goldscore.Internal.Correction.Weighted>
-7.4094

> <Gold.Protein.RotatedTorsions>
[ 3781 1176 1175 1172 ] final   17.88 input   60.00 | X-H torsion
[ 3847 1247 1246 1244 ] final  110.09 input   60.00 | X-H torsion
[ 4507 1931 1930 1928 ] final  106.04 input   60.00 | X-H torsion
[ 3677 1070 1069 1066 ] final -117.59 input   60.00 | X-H torsion
[ 3525  925  924  922 ] final   -3.61 input   59.99 | X-H torsion
[ 4531 1957 1955 1953 ] final  -83.14 input   60.00 | X-H torsion

> <Gold.Protein.ActiveResidues>
 PHE267  PRO268  MET310  ASP335  TRP336  MET339  TYR343  THR360  PRO361  ILE363
 PRO371  SER374  ILE375  ASN378  PHE381  TYR383  GLN384  PHE387  LEU408  LEU417
 MET419  LEU428  TYR466  MET469  ASN472  ASP496  VAL498  LEU499  MET503  HIS524
 TRP525

> <Gold.Protein.RotatedAtoms>
   -3.6285  -29.5367  -30.4266 H   0  0  0  0  0  0  0  0  0  0  0  0  # atno 3525 bound_to 925
  -11.4932  -23.6043  -31.4504 H   0  0  0  0  0  0  0  0  0  0  0  0  # atno 3677 bound_to 1070
  -10.8295  -37.3556  -33.4059 H   0  0  0  0  0  0  0  0  0  0  0  0  # atno 3781 bound_to 1176
  -14.3444  -28.4336  -37.6996 H   0  0  0  0  0  0  0  0  0  0  0  0  # atno 3847 bound_to 1247
  -12.4317  -24.0673  -39.1728 H   0  0  0  0  0  0  0  0  0  0  0  0  # atno 4507 bound_to 1931
   -1.6428  -32.3690  -36.9176 H   0  0  0  0  0  0  0  0  0  0  0  0  # atno 4531 bound_to 1957
   -9.6641  -36.3662  -33.9636 LP  0  0  0  0  0  0  0  0  0  0  0  0  # atno 5205 bound_to 1176
   -9.6116  -36.9079  -32.4239 LP  0  0  0  0  0  0  0  0  0  0  0  0  # atno 5206 bound_to 1176
  -15.8264  -28.6050  -37.0497 LP  0  0  0  0  0  0  0  0  0  0  0  0  # atno 5215 bound_to 1247
  -15.3995  -27.1960  -37.7562 LP  0  0  0  0  0  0  0  0  0  0  0  0  # atno 5216 bound_to 1247
  -13.4005  -25.3722  -39.2545 LP  0  0  0  0  0  0  0  0  0  0  0  0  # atno 5217 bound_to 1931
  -13.3670  -24.2983  -40.4842 LP  0  0  0  0  0  0  0  0  0  0  0  0  # atno 5218 bound_to 1931
  -11.5460  -22.2010  -30.6282 LP  0  0  0  0  0  0  0  0  0  0  0  0  # atno 5224 bound_to 1070
  -12.8181  -23.2240  -30.5854 LP  0  0  0  0  0  0  0  0  0  0  0  0  # atno 5225 bound_to 1070

$$$$
IA_102.cdx|SeH_inactivess_minimized|sdf|4|dock1
  -GOLD-   4172118243D 1   1.00000     0.00000

 59 58  0  0  0  0  0  0  0  0  1 V2000
  -21.0001  -23.8667  -38.7645 C   0  0  0  0  0  0  0  0  0  0  0  0
   -3.5703  -32.3143  -34.2215 C   0  0  0  0  0  0  0  0  0  0  0  0
  -23.1558  -22.6447  -39.0593 C   0  0  0  0  0  0  0  0  0  0  0  0
   -4.7526  -33.0221  -34.8644 C   0  0  0  0  0  0  0  0  0  0  0  0
   -5.7141  -32.0735  -35.5840 C   0  0  0  0  0  0  0  0  0  0  0  0
   -6.4655  -31.0842  -34.6865 C   0  0  0  0  0  0  0  0  0  0  0  0
   -7.5643  -30.2660  -35.3716 C   0  0  0  0  0  0  0  0  0  0  0  0
   -8.2259  -29.2413  -34.4467 C   0  0  0  0  0  0  0  0  0  0  0  0
   -8.9904  -28.1861  -35.2496 C   0  0  0  0  0  0  0  0  0  0  0  0
   -9.7696  -27.1989  -34.3750 C   0  0  0  0  0  0  0  0  0  0  0  0
  -10.5187  -26.0903  -35.1213 C   0  0  0  0  0  0  0  0  0  0  0  0
  -11.7310  -26.5943  -35.9066 C   0  0  0  0  0  0  0  0  0  0  0  0
  -12.6944  -25.4506  -36.2321 C   0  0  0  0  0  0  0  0  0  0  0  0
  -14.0135  -25.9791  -36.8005 C   0  0  0  0  0  0  0  0  0  0  0  0
  -15.0440  -24.8567  -36.9422 C   0  0  0  0  0  0  0  0  0  0  0  0
  -16.3332  -25.2962  -37.6435 C   0  0  0  0  0  0  0  0  0  0  0  0
  -17.5007  -24.3263  -37.4332 C   0  0  0  0  0  0  0  0  0  0  0  0
  -18.7803  -24.7948  -38.1204 C   0  0  0  0  0  0  0  0  0  0  0  0
  -21.8978  -22.8719  -38.3862 N   0  0  0  0  0  0  0  0  0  0  0  0
  -19.8660  -23.8696  -37.9495 N   0  0  0  0  0  0  0  0  0  0  0  0
  -21.1787  -24.6469  -39.6989 O   0  0  0  0  0  0  0  0  0  0  0  0
   -3.9064  -31.5810  -33.4818 H   0  0  0  0  0  0  0  0  0  0  0  0
   -2.9899  -31.7846  -34.9838 H   0  0  0  0  0  0  0  0  0  0  0  0
   -2.8991  -33.0224  -33.7269 H   0  0  0  0  0  0  0  0  0  0  0  0
  -23.8062  -23.5157  -38.9439 H   0  0  0  0  0  0  0  0  0  0  0  0
  -22.9878  -22.4696  -40.1254 H   0  0  0  0  0  0  0  0  0  0  0  0
  -23.6588  -21.7713  -38.6355 H   0  0  0  0  0  0  0  0  0  0  0  0
   -5.2862  -33.6060  -34.1066 H   0  0  0  0  0  0  0  0  0  0  0  0
   -4.3695  -33.7440  -35.5961 H   0  0  0  0  0  0  0  0  0  0  0  0
   -6.4370  -32.6718  -36.1510 H   0  0  0  0  0  0  0  0  0  0  0  0
   -5.1511  -31.4990  -36.3308 H   0  0  0  0  0  0  0  0  0  0  0  0
   -5.7331  -30.3945  -34.2478 H   0  0  0  0  0  0  0  0  0  0  0  0
   -6.9094  -31.6259  -33.8428 H   0  0  0  0  0  0  0  0  0  0  0  0
   -7.1610  -29.7615  -36.2571 H   0  0  0  0  0  0  0  0  0  0  0  0
   -8.3281  -30.9640  -35.7372 H   0  0  0  0  0  0  0  0  0  0  0  0
   -7.4596  -28.7517  -33.8377 H   0  0  0  0  0  0  0  0  0  0  0  0
   -8.9131  -29.7526  -33.7622 H   0  0  0  0  0  0  0  0  0  0  0  0
   -8.2980  -27.6427  -35.9029 H   0  0  0  0  0  0  0  0  0  0  0  0
   -9.7062  -28.6884  -35.9127 H   0  0  0  0  0  0  0  0  0  0  0  0
   -9.0757  -26.7299  -33.6664 H   0  0  0  0  0  0  0  0  0  0  0  0
  -10.4884  -27.7664  -33.7707 H   0  0  0  0  0  0  0  0  0  0  0  0
   -9.8334  -25.5614  -35.7937 H   0  0  0  0  0  0  0  0  0  0  0  0
  -10.8525  -25.3511  -34.3821 H   0  0  0  0  0  0  0  0  0  0  0  0
  -11.4046  -27.0623  -36.8421 H   0  0  0  0  0  0  0  0  0  0  0  0
  -12.2545  -27.3612  -35.3231 H   0  0  0  0  0  0  0  0  0  0  0  0
  -12.2276  -24.7727  -36.9573 H   0  0  0  0  0  0  0  0  0  0  0  0
  -12.8924  -24.8675  -35.3245 H   0  0  0  0  0  0  0  0  0  0  0  0
  -14.4094  -26.7613  -36.1419 H   0  0  0  0  0  0  0  0  0  0  0  0
  -13.8228  -26.4402  -37.7759 H   0  0  0  0  0  0  0  0  0  0  0  0
  -15.3087  -24.4871  -35.9438 H   0  0  0  0  0  0  0  0  0  0  0  0
  -14.6006  -24.0121  -37.4835 H   0  0  0  0  0  0  0  0  0  0  0  0
  -16.6058  -26.2849  -37.2553 H   0  0  0  0  0  0  0  0  0  0  0  0
  -16.1436  -25.4200  -38.7167 H   0  0  0  0  0  0  0  0  0  0  0  0
  -17.2393  -23.3436  -37.8405 H   0  0  0  0  0  0  0  0  0  0  0  0
  -17.6827  -24.1963  -36.3594 H   0  0  0  0  0  0  0  0  0  0  0  0
  -18.6114  -24.8920  -39.1976 H   0  0  0  0  0  0  0  0  0  0  0  0
  -19.1040  -25.7676  -37.7372 H   0  0  0  0  0  0  0  0  0  0  0  0
  -21.6567  -22.2776  -37.5993 H   0  0  0  0  0  0  0  0  0  0  0  0
  -19.7891  -23.1529  -37.2297 H   0  0  0  0  0  0  0  0  0  0  0  0
  1 19  1  0  0  0  0
  1 20  1  0  0  0  0
  1 21  2  0  0  0  0
  2  4  1  0  0  0  0
  3 19  1  0  0  0  0
  4  5  1  0  0  0  0
  5  6  1  0  0  0  0
  6  7  1  0  0  0  0
  7  8  1  0  0  0  0
  8  9  1  0  0  0  0
  9 10  1  0  0  0  0
 10 11  1  0  0  0  0
 11 12  1  0  0  0  0
 12 13  1  0  0  0  0
 13 14  1  0  0  0  0
 14 15  1  0  0  0  0
 15 16  1  0  0  0  0
 16 17  1  0  0  0  0
 17 18  1  0  0  0  0
 18 20  1  0  0  0  0
  2 22  1  0  0  0  0
  2 23  1  0  0  0  0
  2 24  1  0  0  0  0
  3 25  1  0  0  0  0
  3 26  1  0  0  0  0
  3 27  1  0  0  0  0
  4 28  1  0  0  0  0
  4 29  1  0  0  0  0
  5 30  1  0  0  0  0
  5 31  1  0  0  0  0
  6 32  1  0  0  0  0
  6 33  1  0  0  0  0
  7 34  1  0  0  0  0
  7 35  1  0  0  0  0
  8 36  1  0  0  0  0
  8 37  1  0  0  0  0
  9 38  1  0  0  0  0
  9 39  1  0  0  0  0
 10 40  1  0  0  0  0
 10 41  1  0  0  0  0
 11 42  1  0  0  0  0
 11 43  1  0  0  0  0
 12 44  1  0  0  0  0
 12 45  1  0  0  0  0
 13 46  1  0  0  0  0
 13 47  1  0  0  0  0
 14 48  1  0  0  0  0
 14 49  1  0  0  0  0
 15 50  1  0  0  0  0
 15 51  1  0  0  0  0
 16 52  1  0  0  0  0
 16 53  1  0  0  0  0
 17 54  1  0  0  0  0
 17 55  1  0  0  0  0
 18 56  1  0  0  0  0
 18 57  1  0  0  0  0
 19 58  1  0  0  0  0
 20 59  1  0  0  0  0
M  END
> <Name>
IA_102.cdx

> <SourceTag>
IA_102

> <Gold.Version>
5.2

> <Gold.Id.Protein>
6HGV|6HGV_protein|mol2

> <Gold.Goldscore.Fitness>
65.3494

> <Gold.Goldscore.Internal.Vdw>
-6.5268

> <Gold.Goldscore.Internal.Torsion>
-4.0187

> <Gold.Goldscore.External.Vdw>
48.8492

> <Gold.Goldscore.Internal.HBond>
0.0000

> <Gold.Goldscore.External.HBond>
0.0000

> <Gold.Goldscore.Internal.Correction>
-8.7273

> <Gold.Goldscore.Internal.Vdw.Weighted>
-6.5268

> <Gold.Goldscore.Internal.Torsion.Weighted>
-4.0187

> <Gold.Goldscore.External.Vdw.Weighted>
67.1676

> <Gold.Goldscore.Internal.HBond.Weighted>
0.0000

> <Gold.Goldscore.External.HBond.Weighted>
0.0000

> <Gold.Goldscore.Internal.Correction.Weighted>
-8.7273

> <Gold.Protein.RotatedTorsions>
[ 3781 1176 1175 1172 ] final -153.69 input   60.00 | X-H torsion
[ 3847 1247 1246 1244 ] final   31.99 input   60.00 | X-H torsion
[ 4507 1931 1930 1928 ] final  -72.42 input   60.00 | X-H torsion
[ 3677 1070 1069 1066 ] final -113.09 input   60.00 | X-H torsion
[ 3525  925  924  922 ] final   52.03 input   59.99 | X-H torsion
[ 4531 1957 1955 1953 ] final  122.82 input   60.00 | X-H torsion

> <Gold.Protein.ActiveResidues>
 PHE267  PRO268  MET310  ASP335  TRP336  MET339  TYR343  THR360  PRO361  ILE363
 PRO371  SER374  ILE375  ASN378  PHE381  TYR383  GLN384  PHE387  LEU408  LEU417
 MET419  LEU428  TYR466  MET469  ASN472  ASP496  VAL498  LEU499  MET503  HIS524
 TRP525

> <Gold.Protein.RotatedAtoms>
   -2.9243  -29.8031  -30.8700 H   0  0  0  0  0  0  0  0  0  0  0  0  # atno 3525 bound_to 925
  -11.5518  -23.6485  -31.4468 H   0  0  0  0  0  0  0  0  0  0  0  0  # atno 3677 bound_to 1070
   -9.2556  -36.3619  -33.2556 H   0  0  0  0  0  0  0  0  0  0  0  0  # atno 3781 bound_to 1176
  -15.2541  -28.9430  -37.1477 H   0  0  0  0  0  0  0  0  0  0  0  0  # atno 3847 bound_to 1247
  -13.6961  -25.1067  -40.0817 H   0  0  0  0  0  0  0  0  0  0  0  0  # atno 4507 bound_to 1931
   -2.3342  -34.0546  -36.8153 H   0  0  0  0  0  0  0  0  0  0  0  0  # atno 4531 bound_to 1957
  -10.3029  -37.3443  -32.4899 LP  0  0  0  0  0  0  0  0  0  0  0  0  # atno 5205 bound_to 1176
  -10.5577  -36.9305  -34.0489 LP  0  0  0  0  0  0  0  0  0  0  0  0  # atno 5206 bound_to 1176
  -15.9194  -27.4872  -37.4408 LP  0  0  0  0  0  0  0  0  0  0  0  0  # atno 5215 bound_to 1247
  -14.3905  -27.8009  -37.9209 LP  0  0  0  0  0  0  0  0  0  0  0  0  # atno 5216 bound_to 1247
  -12.7451  -23.7870  -40.0372 LP  0  0  0  0  0  0  0  0  0  0  0  0  # atno 5217 bound_to 1931
  -12.7491  -24.8366  -38.7862 LP  0  0  0  0  0  0  0  0  0  0  0  0  # atno 5218 bound_to 1931
  -11.4872  -22.2208  -30.6684 LP  0  0  0  0  0  0  0  0  0  0  0  0  # atno 5224 bound_to 1070
  -12.8179  -23.1597  -30.5489 LP  0  0  0  0  0  0  0  0  0  0  0  0  # atno 5225 bound_to 1070

$$$$
IA_103.cdx|SeH_inactivess_minimized|sdf|5|dock2
  -GOLD-   4172118283D 1   1.00000     0.00000

 65 64  0  0  0  0  0  0  0  0  1 V2000
   -6.8370  -30.5461  -35.2540 C   0  0  0  0  0  0  0  0  0  0  0  0
  -24.5851  -24.8589  -34.4696 C   0  0  0  0  0  0  0  0  0  0  0  0
   -3.3283  -31.7917  -33.3788 C   0  0  0  0  0  0  0  0  0  0  0  0
  -23.1817  -24.3410  -34.7430 C   0  0  0  0  0  0  0  0  0  0  0  0
   -4.2385  -32.5589  -34.3273 C   0  0  0  0  0  0  0  0  0  0  0  0
  -22.5677  -24.8933  -36.0314 C   0  0  0  0  0  0  0  0  0  0  0  0
  -21.1242  -24.4641  -36.3155 C   0  0  0  0  0  0  0  0  0  0  0  0
  -20.5081  -25.0129  -37.6060 C   0  0  0  0  0  0  0  0  0  0  0  0
  -19.1265  -24.4314  -37.9157 C   0  0  0  0  0  0  0  0  0  0  0  0
  -18.0731  -24.9628  -36.9406 C   0  0  0  0  0  0  0  0  0  0  0  0
  -16.6495  -24.9379  -37.5058 C   0  0  0  0  0  0  0  0  0  0  0  0
  -15.5452  -25.4204  -36.5601 C   0  0  0  0  0  0  0  0  0  0  0  0
  -14.1329  -25.1744  -37.0945 C   0  0  0  0  0  0  0  0  0  0  0  0
  -13.0742  -25.7136  -36.1298 C   0  0  0  0  0  0  0  0  0  0  0  0
  -11.6782  -25.2021  -36.4934 C   0  0  0  0  0  0  0  0  0  0  0  0
  -10.6417  -25.6380  -35.4556 C   0  0  0  0  0  0  0  0  0  0  0  0
  -10.3397  -27.1395  -35.4875 C   0  0  0  0  0  0  0  0  0  0  0  0
   -9.0231  -27.5097  -34.7963 C   0  0  0  0  0  0  0  0  0  0  0  0
   -4.6600  -31.7325  -35.5364 C   0  0  0  0  0  0  0  0  0  0  0  0
   -8.7509  -29.0110  -34.8240 C   0  0  0  0  0  0  0  0  0  0  0  0
   -5.4478  -30.5792  -35.1670 N   0  0  0  0  0  0  0  0  0  0  0  0
   -7.3468  -29.3148  -34.8359 N   0  0  0  0  0  0  0  0  0  0  0  0
   -7.5324  -31.4813  -35.6482 O   0  0  0  0  0  0  0  0  0  0  0  0
  -25.2945  -24.4817  -35.2128 H   0  0  0  0  0  0  0  0  0  0  0  0
  -24.9216  -24.5280  -33.4818 H   0  0  0  0  0  0  0  0  0  0  0  0
  -24.6190  -25.9522  -34.4820 H   0  0  0  0  0  0  0  0  0  0  0  0
   -3.0061  -32.4254  -32.5463 H   0  0  0  0  0  0  0  0  0  0  0  0
   -2.4340  -31.4496  -33.9093 H   0  0  0  0  0  0  0  0  0  0  0  0
   -3.8317  -30.9113  -32.9675 H   0  0  0  0  0  0  0  0  0  0  0  0
  -22.5363  -24.5621  -33.8858 H   0  0  0  0  0  0  0  0  0  0  0  0
  -23.2240  -23.2479  -34.8229 H   0  0  0  0  0  0  0  0  0  0  0  0
   -5.1361  -32.8670  -33.7788 H   0  0  0  0  0  0  0  0  0  0  0  0
   -3.7289  -33.4727  -34.6552 H   0  0  0  0  0  0  0  0  0  0  0  0
  -23.2060  -24.6043  -36.8749 H   0  0  0  0  0  0  0  0  0  0  0  0
  -22.5983  -25.9898  -35.9960 H   0  0  0  0  0  0  0  0  0  0  0  0
  -20.5009  -24.7740  -35.4669 H   0  0  0  0  0  0  0  0  0  0  0  0
  -21.0706  -23.3691  -36.3422 H   0  0  0  0  0  0  0  0  0  0  0  0
  -20.4494  -26.1064  -37.5594 H   0  0  0  0  0  0  0  0  0  0  0  0
  -21.1894  -24.7772  -38.4333 H   0  0  0  0  0  0  0  0  0  0  0  0
  -19.1672  -23.3398  -37.8492 H   0  0  0  0  0  0  0  0  0  0  0  0
  -18.8406  -24.6880  -38.9426 H   0  0  0  0  0  0  0  0  0  0  0  0
  -18.1144  -24.3956  -36.0036 H   0  0  0  0  0  0  0  0  0  0  0  0
  -18.3156  -26.0011  -36.6808 H   0  0  0  0  0  0  0  0  0  0  0  0
  -16.4116  -23.9139  -37.8203 H   0  0  0  0  0  0  0  0  0  0  0  0
  -16.6289  -25.5508  -38.4157 H   0  0  0  0  0  0  0  0  0  0  0  0
  -15.6792  -26.4857  -36.3395 H   0  0  0  0  0  0  0  0  0  0  0  0
  -15.6639  -24.8934  -35.6050 H   0  0  0  0  0  0  0  0  0  0  0  0
  -14.0092  -25.6620  -38.0679 H   0  0  0  0  0  0  0  0  0  0  0  0
  -13.9789  -24.0992  -37.2457 H   0  0  0  0  0  0  0  0  0  0  0  0
  -13.0809  -26.8103  -36.1534 H   0  0  0  0  0  0  0  0  0  0  0  0
  -13.3219  -25.4100  -35.1055 H   0  0  0  0  0  0  0  0  0  0  0  0
  -11.6946  -24.1076  -36.5601 H   0  0  0  0  0  0  0  0  0  0  0  0
  -11.4041  -25.5847  -37.4827 H   0  0  0  0  0  0  0  0  0  0  0  0
   -9.7043  -25.0983  -35.6390 H   0  0  0  0  0  0  0  0  0  0  0  0
  -10.9787  -25.3520  -34.4518 H   0  0  0  0  0  0  0  0  0  0  0  0
  -10.3004  -27.4515  -36.5380 H   0  0  0  0  0  0  0  0  0  0  0  0
  -11.1678  -27.6908  -35.0256 H   0  0  0  0  0  0  0  0  0  0  0  0
   -9.0569  -27.1921  -33.7484 H   0  0  0  0  0  0  0  0  0  0  0  0
   -8.1934  -26.9736  -35.2729 H   0  0  0  0  0  0  0  0  0  0  0  0
   -3.7751  -31.3602  -36.0624 H   0  0  0  0  0  0  0  0  0  0  0  0
   -5.2487  -32.3293  -36.2401 H   0  0  0  0  0  0  0  0  0  0  0  0
   -9.1711  -29.4832  -33.9303 H   0  0  0  0  0  0  0  0  0  0  0  0
   -9.2040  -29.4811  -35.7025 H   0  0  0  0  0  0  0  0  0  0  0  0
   -4.9652  -29.7530  -34.8276 H   0  0  0  0  0  0  0  0  0  0  0  0
   -6.6927  -28.6185  -34.4825 H   0  0  0  0  0  0  0  0  0  0  0  0
  1 21  1  0  0  0  0
  1 22  1  0  0  0  0
  1 23  2  0  0  0  0
  2  4  1  0  0  0  0
  3  5  1  0  0  0  0
  4  6  1  0  0  0  0
  5 19  1  0  0  0  0
  6  7  1  0  0  0  0
  7  8  1  0  0  0  0
  8  9  1  0  0  0  0
  9 10  1  0  0  0  0
 10 11  1  0  0  0  0
 11 12  1  0  0  0  0
 12 13  1  0  0  0  0
 13 14  1  0  0  0  0
 14 15  1  0  0  0  0
 15 16  1  0  0  0  0
 16 17  1  0  0  0  0
 17 18  1  0  0  0  0
 18 20  1  0  0  0  0
 19 21  1  0  0  0  0
 20 22  1  0  0  0  0
  2 24  1  0  0  0  0
  2 25  1  0  0  0  0
  2 26  1  0  0  0  0
  3 27  1  0  0  0  0
  3 28  1  0  0  0  0
  3 29  1  0  0  0  0
  4 30  1  0  0  0  0
  4 31  1  0  0  0  0
  5 32  1  0  0  0  0
  5 33  1  0  0  0  0
  6 34  1  0  0  0  0
  6 35  1  0  0  0  0
  7 36  1  0  0  0  0
  7 37  1  0  0  0  0
  8 38  1  0  0  0  0
  8 39  1  0  0  0  0
  9 40  1  0  0  0  0
  9 41  1  0  0  0  0
 10 42  1  0  0  0  0
 10 43  1  0  0  0  0
 11 44  1  0  0  0  0
 11 45  1  0  0  0  0
 12 46  1  0  0  0  0
 12 47  1  0  0  0  0
 13 48  1  0  0  0  0
 13 49  1  0  0  0  0
 14 50  1  0  0  0  0
 14 51  1  0  0  0  0
 15 52  1  0  0  0  0
 15 53  1  0  0  0  0
 16 54  1  0  0  0  0
 16 55  1  0  0  0  0
 17 56  1  0  0  0  0
 17 57  1  0  0  0  0
 18 58  1  0  0  0  0
 18 59  1  0  0  0  0
 19 60  1  0  0  0  0
 19 61  1  0  0  0  0
 20 62  1  0  0  0  0
 20 63  1  0  0  0  0
 21 64  1  0  0  0  0
 22 65  1  0  0  0  0
M  END
> <Name>
IA_103.cdx

> <SourceTag>
IA_103

> <Gold.Version>
5.2

> <Gold.Id.Protein>
6HGV|6HGV_protein|mol2

> <Gold.Goldscore.Fitness>
76.8327

> <Gold.Goldscore.Internal.Vdw>
-7.9327

> <Gold.Goldscore.Internal.Torsion>
-5.6199

> <Gold.Goldscore.External.Vdw>
60.0182

> <Gold.Goldscore.Internal.HBond>
0.0000

> <Gold.Goldscore.External.HBond>
0.0000

> <Gold.Goldscore.Internal.Correction>
-7.8602

> <Gold.Goldscore.Internal.Vdw.Weighted>
-7.9327

> <Gold.Goldscore.Internal.Torsion.Weighted>
-5.6199

> <Gold.Goldscore.External.Vdw.Weighted>
82.5251

> <Gold.Goldscore.Internal.HBond.Weighted>
0.0000

> <Gold.Goldscore.External.HBond.Weighted>
0.0000

> <Gold.Goldscore.Internal.Correction.Weighted>
-7.8602

> <Gold.Protein.RotatedTorsions>
[ 3781 1176 1175 1172 ] final  -59.00 input   60.00 | X-H torsion
[ 3847 1247 1246 1244 ] final   22.52 input   60.00 | X-H torsion
[ 4507 1931 1930 1928 ] final  127.80 input   60.00 | X-H torsion
[ 3677 1070 1069 1066 ] final -100.97 input   60.00 | X-H torsion
[ 3525  925  924  922 ] final   50.96 input   59.99 | X-H torsion
[ 4531 1957 1955 1953 ] final  124.72 input   60.00 | X-H torsion

> <Gold.Protein.ActiveResidues>
 PHE267  PRO268  MET310  ASP335  TRP336  MET339  TYR343  THR360  PRO361  ILE363
 PRO371  SER374  ILE375  ASN378  PHE381  TYR383  GLN384  PHE387  LEU408  LEU417
 MET419  LEU428  TYR466  MET469  ASN472  ASP496  VAL498  LEU499  MET503  HIS524
 TRP525

> <Gold.Protein.RotatedAtoms>
   -2.9404  -29.7962  -30.8690 H   0  0  0  0  0  0  0  0  0  0  0  0  # atno 3525 bound_to 925
  -11.7209  -23.7473  -31.4199 H   0  0  0  0  0  0  0  0  0  0  0  0  # atno 3677 bound_to 1070
  -10.2455  -36.6847  -34.1568 H   0  0  0  0  0  0  0  0  0  0  0  0  # atno 3781 bound_to 1176
  -15.3973  -28.9017  -37.1073 H   0  0  0  0  0  0  0  0  0  0  0  0  # atno 3847 bound_to 1247
  -12.4696  -23.8755  -39.4672 H   0  0  0  0  0  0  0  0  0  0  0  0  # atno 4507 bound_to 1931
   -2.3042  -34.0592  -36.8210 H   0  0  0  0  0  0  0  0  0  0  0  0  # atno 4531 bound_to 1957
   -9.2640  -36.5085  -32.8709 LP  0  0  0  0  0  0  0  0  0  0  0  0  # atno 5205 bound_to 1176
  -10.5998  -37.4412  -32.7603 LP  0  0  0  0  0  0  0  0  0  0  0  0  # atno 5206 bound_to 1176
  -15.8275  -27.3863  -37.5154 LP  0  0  0  0  0  0  0  0  0  0  0  0  # atno 5215 bound_to 1247
  -14.3381  -27.9434  -37.8869 LP  0  0  0  0  0  0  0  0  0  0  0  0  # atno 5216 bound_to 1247
  -13.1759  -25.2651  -39.0001 LP  0  0  0  0  0  0  0  0  0  0  0  0  # atno 5217 bound_to 1931
  -13.5535  -24.5985  -40.4422 LP  0  0  0  0  0  0  0  0  0  0  0  0  # atno 5218 bound_to 1931
  -11.3438  -22.2981  -30.7830 LP  0  0  0  0  0  0  0  0  0  0  0  0  # atno 5224 bound_to 1070
  -12.7910  -22.9829  -30.4614 LP  0  0  0  0  0  0  0  0  0  0  0  0  # atno 5225 bound_to 1070

$$$$
IA_103.cdx|SeH_inactivess_minimized|sdf|5|dock9
  -GOLD-   4172118313D 1   1.00000     0.00000

 65 64  0  0  0  0  0  0  0  0  1 V2000
   -6.5021  -30.0524  -34.5378 C   0  0  0  0  0  0  0  0  0  0  0  0
  -24.6259  -22.9311  -35.6012 C   0  0  0  0  0  0  0  0  0  0  0  0
   -4.1206  -33.1179  -33.6810 C   0  0  0  0  0  0  0  0  0  0  0  0
  -23.1942  -23.0760  -36.0930 C   0  0  0  0  0  0  0  0  0  0  0  0
   -3.7612  -31.9015  -34.5225 C   0  0  0  0  0  0  0  0  0  0  0  0
  -23.0216  -24.1623  -37.1571 C   0  0  0  0  0  0  0  0  0  0  0  0
  -21.6370  -24.2377  -37.8096 C   0  0  0  0  0  0  0  0  0  0  0  0
  -20.5146  -24.7929  -36.9274 C   0  0  0  0  0  0  0  0  0  0  0  0
  -19.1375  -24.7464  -37.5940 C   0  0  0  0  0  0  0  0  0  0  0  0
  -18.0437  -25.2203  -36.6339 C   0  0  0  0  0  0  0  0  0  0  0  0
  -16.6269  -25.0575  -37.1936 C   0  0  0  0  0  0  0  0  0  0  0  0
  -15.4934  -25.5905  -36.3116 C   0  0  0  0  0  0  0  0  0  0  0  0
  -14.1067  -25.4336  -36.9384 C   0  0  0  0  0  0  0  0  0  0  0  0
  -13.0347  -26.1221  -36.0905 C   0  0  0  0  0  0  0  0  0  0  0  0
  -11.6299  -25.6658  -36.4918 C   0  0  0  0  0  0  0  0  0  0  0  0
  -10.5798  -26.1703  -35.4997 C   0  0  0  0  0  0  0  0  0  0  0  0
  -10.2770  -27.6656  -35.6386 C   0  0  0  0  0  0  0  0  0  0  0  0
   -9.2393  -28.1719  -34.6312 C   0  0  0  0  0  0  0  0  0  0  0  0
   -4.1610  -30.5884  -33.8605 C   0  0  0  0  0  0  0  0  0  0  0  0
   -8.9491  -29.6616  -34.7905 C   0  0  0  0  0  0  0  0  0  0  0  0
   -5.5803  -30.5125  -33.6014 N   0  0  0  0  0  0  0  0  0  0  0  0
   -7.8038  -30.0825  -34.0322 N   0  0  0  0  0  0  0  0  0  0  0  0
   -6.2117  -29.6675  -35.6697 O   0  0  0  0  0  0  0  0  0  0  0  0
  -25.2911  -22.6237  -36.4142 H   0  0  0  0  0  0  0  0  0  0  0  0
  -24.6778  -22.1706  -34.8155 H   0  0  0  0  0  0  0  0  0  0  0  0
  -25.0028  -23.8680  -35.1808 H   0  0  0  0  0  0  0  0  0  0  0  0
   -3.6622  -33.0575  -32.6887 H   0  0  0  0  0  0  0  0  0  0  0  0
   -5.2057  -33.1775  -33.5493 H   0  0  0  0  0  0  0  0  0  0  0  0
   -3.7892  -34.0453  -34.1583 H   0  0  0  0  0  0  0  0  0  0  0  0
  -22.5319  -23.2657  -35.2412 H   0  0  0  0  0  0  0  0  0  0  0  0
  -22.8760  -22.1188  -36.5235 H   0  0  0  0  0  0  0  0  0  0  0  0
   -4.2725  -31.9807  -35.4889 H   0  0  0  0  0  0  0  0  0  0  0  0
   -2.6835  -31.9086  -34.7241 H   0  0  0  0  0  0  0  0  0  0  0  0
  -23.7821  -24.0157  -37.9333 H   0  0  0  0  0  0  0  0  0  0  0  0
  -23.2408  -25.1381  -36.7050 H   0  0  0  0  0  0  0  0  0  0  0  0
  -21.3590  -23.2293  -38.1418 H   0  0  0  0  0  0  0  0  0  0  0  0
  -21.6982  -24.8464  -38.7197 H   0  0  0  0  0  0  0  0  0  0  0  0
  -20.4844  -24.2540  -35.9735 H   0  0  0  0  0  0  0  0  0  0  0  0
  -20.7594  -25.8345  -36.6838 H   0  0  0  0  0  0  0  0  0  0  0  0
  -18.9223  -23.7224  -37.9150 H   0  0  0  0  0  0  0  0  0  0  0  0
  -19.1403  -25.3783  -38.4899 H   0  0  0  0  0  0  0  0  0  0  0  0
  -18.1325  -24.6903  -35.6786 H   0  0  0  0  0  0  0  0  0  0  0  0
  -18.1986  -26.2833  -36.4097 H   0  0  0  0  0  0  0  0  0  0  0  0
  -16.4428  -23.9931  -37.3864 H   0  0  0  0  0  0  0  0  0  0  0  0
  -16.5817  -25.5583  -38.1688 H   0  0  0  0  0  0  0  0  0  0  0  0
  -15.6733  -26.6433  -36.0651 H   0  0  0  0  0  0  0  0  0  0  0  0
  -15.5205  -25.0450  -35.3599 H   0  0  0  0  0  0  0  0  0  0  0  0
  -14.0978  -25.8672  -37.9447 H   0  0  0  0  0  0  0  0  0  0  0  0
  -13.8672  -24.3682  -37.0397 H   0  0  0  0  0  0  0  0  0  0  0  0
  -13.1153  -27.2096  -36.2093 H   0  0  0  0  0  0  0  0  0  0  0  0
  -13.2051  -25.8984  -35.0304 H   0  0  0  0  0  0  0  0  0  0  0  0
  -11.5987  -24.5706  -36.5358 H   0  0  0  0  0  0  0  0  0  0  0  0
  -11.4071  -26.0388  -37.4977 H   0  0  0  0  0  0  0  0  0  0  0  0
   -9.6453  -25.6176  -35.6575 H   0  0  0  0  0  0  0  0  0  0  0  0
  -10.9043  -25.9546  -34.4745 H   0  0  0  0  0  0  0  0  0  0  0  0
   -9.9117  -27.8405  -36.6576 H   0  0  0  0  0  0  0  0  0  0  0  0
  -11.2056  -28.2398  -35.5336 H   0  0  0  0  0  0  0  0  0  0  0  0
   -9.6060  -28.0066  -33.6123 H   0  0  0  0  0  0  0  0  0  0  0  0
   -8.3101  -27.5994  -34.7402 H   0  0  0  0  0  0  0  0  0  0  0  0
   -3.6538  -30.4857  -32.8959 H   0  0  0  0  0  0  0  0  0  0  0  0
   -3.8875  -29.7303  -34.4824 H   0  0  0  0  0  0  0  0  0  0  0  0
   -9.8010  -30.2483  -34.4323 H   0  0  0  0  0  0  0  0  0  0  0  0
   -8.7726  -29.9224  -35.8387 H   0  0  0  0  0  0  0  0  0  0  0  0
   -5.9219  -30.8090  -32.6924 H   0  0  0  0  0  0  0  0  0  0  0  0
   -7.9482  -30.4622  -33.0981 H   0  0  0  0  0  0  0  0  0  0  0  0
  1 21  1  0  0  0  0
  1 22  1  0  0  0  0
  1 23  2  0  0  0  0
  2  4  1  0  0  0  0
  3  5  1  0  0  0  0
  4  6  1  0  0  0  0
  5 19  1  0  0  0  0
  6  7  1  0  0  0  0
  7  8  1  0  0  0  0
  8  9  1  0  0  0  0
  9 10  1  0  0  0  0
 10 11  1  0  0  0  0
 11 12  1  0  0  0  0
 12 13  1  0  0  0  0
 13 14  1  0  0  0  0
 14 15  1  0  0  0  0
 15 16  1  0  0  0  0
 16 17  1  0  0  0  0
 17 18  1  0  0  0  0
 18 20  1  0  0  0  0
 19 21  1  0  0  0  0
 20 22  1  0  0  0  0
  2 24  1  0  0  0  0
  2 25  1  0  0  0  0
  2 26  1  0  0  0  0
  3 27  1  0  0  0  0
  3 28  1  0  0  0  0
  3 29  1  0  0  0  0
  4 30  1  0  0  0  0
  4 31  1  0  0  0  0
  5 32  1  0  0  0  0
  5 33  1  0  0  0  0
  6 34  1  0  0  0  0
  6 35  1  0  0  0  0
  7 36  1  0  0  0  0
  7 37  1  0  0  0  0
  8 38  1  0  0  0  0
  8 39  1  0  0  0  0
  9 40  1  0  0  0  0
  9 41  1  0  0  0  0
 10 42  1  0  0  0  0
 10 43  1  0  0  0  0
 11 44  1  0  0  0  0
 11 45  1  0  0  0  0
 12 46  1  0  0  0  0
 12 47  1  0  0  0  0
 13 48  1  0  0  0  0
 13 49  1  0  0  0  0
 14 50  1  0  0  0  0
 14 51  1  0  0  0  0
 15 52  1  0  0  0  0
 15 53  1  0  0  0  0
 16 54  1  0  0  0  0
 16 55  1  0  0  0  0
 17 56  1  0  0  0  0
 17 57  1  0  0  0  0
 18 58  1  0  0  0  0
 18 59  1  0  0  0  0
 19 60  1  0  0  0  0
 19 61  1  0  0  0  0
 20 62  1  0  0  0  0
 20 63  1  0  0  0  0
 21 64  1  0  0  0  0
 22 65  1  0  0  0  0
M  END
> <Name>
IA_103.cdx

> <SourceTag>
IA_103

> <Gold.Version>
5.2

> <Gold.Id.Protein>
6HGV|6HGV_protein|mol2

> <Gold.Goldscore.Fitness>
74.0243

> <Gold.Goldscore.Internal.Vdw>
-6.2839

> <Gold.Goldscore.Internal.Torsion>
-3.4877

> <Gold.Goldscore.External.Vdw>
55.0562

> <Gold.Goldscore.Internal.HBond>
0.0000

> <Gold.Goldscore.External.HBond>
0.2334

> <Gold.Goldscore.Internal.Correction>
-7.8602

> <Gold.Goldscore.Hbonds>
donor molecule, donor type, donor heavy atom, donor atom, acceptor molecule, acceptor atom, score
      P1  H  1994  4571       L1    23  0.12

> <Gold.Goldscore.Internal.Vdw.Weighted>
-6.2839

> <Gold.Goldscore.Internal.Torsion.Weighted>
-3.4877

> <Gold.Goldscore.External.Vdw.Weighted>
75.7023

> <Gold.Goldscore.Internal.HBond.Weighted>
0.0000

> <Gold.Goldscore.External.HBond.Weighted>
0.2334

> <Gold.Goldscore.Internal.Correction.Weighted>
-7.8602

> <Gold.Protein.RotatedTorsions>
[ 3781 1176 1175 1172 ] final  -93.60 input   60.00 | X-H torsion
[ 3847 1247 1246 1244 ] final   81.40 input   60.00 | X-H torsion
[ 4507 1931 1930 1928 ] final   99.51 input   60.00 | X-H torsion
[ 3677 1070 1069 1066 ] final  -96.54 input   60.00 | X-H torsion
[ 3525  925  924  922 ] final   87.48 input   59.99 | X-H torsion
[ 4531 1957 1955 1953 ] final   80.09 input   60.00 | X-H torsion

> <Gold.Protein.ActiveResidues>
 PHE267  PRO268  MET310  ASP335  TRP336  MET339  TYR343  THR360  PRO361  ILE363
 PRO371  SER374  ILE375  ASN378  PHE381  TYR383  GLN384  PHE387  LEU408  LEU417
 MET419  LEU428  TYR466  MET469  ASN472  ASP496  VAL498  LEU499  MET503  HIS524
 TRP525

> <Gold.Protein.RotatedAtoms>
   -2.4243  -30.0345  -30.7236 H   0  0  0  0  0  0  0  0  0  0  0  0  # atno 3525 bound_to 925
  -11.7856  -23.7754  -31.4041 H   0  0  0  0  0  0  0  0  0  0  0  0  # atno 3677 bound_to 1070
   -9.7736  -36.4155  -34.0352 H   0  0  0  0  0  0  0  0  0  0  0  0  # atno 3781 bound_to 1176
  -14.5655  -28.7779  -37.4811 H   0  0  0  0  0  0  0  0  0  0  0  0  # atno 3847 bound_to 1247
  -12.4380  -24.1407  -39.0956 H   0  0  0  0  0  0  0  0  0  0  0  0  # atno 4507 bound_to 1931
   -2.9083  -33.7044  -36.7001 H   0  0  0  0  0  0  0  0  0  0  0  0  # atno 4531 bound_to 1957
   -9.5160  -36.8228  -32.4809 LP  0  0  0  0  0  0  0  0  0  0  0  0  # atno 5205 bound_to 1176
  -10.8230  -37.3981  -33.2729 LP  0  0  0  0  0  0  0  0  0  0  0  0  # atno 5206 bound_to 1176
  -16.0423  -28.1970  -37.1210 LP  0  0  0  0  0  0  0  0  0  0  0  0  # atno 5215 bound_to 1247
  -14.9610  -27.2573  -37.9049 LP  0  0  0  0  0  0  0  0  0  0  0  0  # atno 5216 bound_to 1247
  -13.4600  -25.3825  -39.3434 LP  0  0  0  0  0  0  0  0  0  0  0  0  # atno 5217 bound_to 1931
  -13.3012  -24.2140  -40.4731 LP  0  0  0  0  0  0  0  0  0  0  0  0  # atno 5218 bound_to 1931
  -11.2979  -22.3345  -30.8262 LP  0  0  0  0  0  0  0  0  0  0  0  0  # atno 5224 bound_to 1070
  -12.7717  -22.9182  -30.4341 LP  0  0  0  0  0  0  0  0  0  0  0  0  # atno 5225 bound_to 1070

$$$$
IA_103.cdx|SeH_inactivess_minimized|sdf|5|dock3
  -GOLD-   4172118293D 1   1.00000     0.00000

 65 64  0  0  0  0  0  0  0  0  1 V2000
   -6.8437  -30.1809  -35.0171 C   0  0  0  0  0  0  0  0  0  0  0  0
  -24.4529  -21.7233  -36.2034 C   0  0  0  0  0  0  0  0  0  0  0  0
   -3.3663  -32.4042  -34.1329 C   0  0  0  0  0  0  0  0  0  0  0  0
  -24.5212  -22.6843  -37.3800 C   0  0  0  0  0  0  0  0  0  0  0  0
   -4.8364  -32.6763  -34.4186 C   0  0  0  0  0  0  0  0  0  0  0  0
  -23.1649  -22.9335  -38.0438 C   0  0  0  0  0  0  0  0  0  0  0  0
  -22.1179  -23.6340  -37.1710 C   0  0  0  0  0  0  0  0  0  0  0  0
  -20.7275  -23.7891  -37.7943 C   0  0  0  0  0  0  0  0  0  0  0  0
  -19.7637  -24.6110  -36.9349 C   0  0  0  0  0  0  0  0  0  0  0  0
  -18.3209  -24.4551  -37.4214 C   0  0  0  0  0  0  0  0  0  0  0  0
  -17.3220  -25.3349  -36.6631 C   0  0  0  0  0  0  0  0  0  0  0  0
  -15.8641  -25.2428  -37.1243 C   0  0  0  0  0  0  0  0  0  0  0  0
  -14.8643  -25.7841  -36.1006 C   0  0  0  0  0  0  0  0  0  0  0  0
  -13.4234  -25.5941  -36.5798 C   0  0  0  0  0  0  0  0  0  0  0  0
  -12.4211  -26.1349  -35.5573 C   0  0  0  0  0  0  0  0  0  0  0  0
  -10.9847  -25.7846  -35.9518 C   0  0  0  0  0  0  0  0  0  0  0  0
   -9.9278  -26.4605  -35.0727 C   0  0  0  0  0  0  0  0  0  0  0  0
   -9.6768  -27.9263  -35.4420 C   0  0  0  0  0  0  0  0  0  0  0  0
   -5.3151  -32.0271  -35.7115 C   0  0  0  0  0  0  0  0  0  0  0  0
   -8.7031  -28.6108  -34.4868 C   0  0  0  0  0  0  0  0  0  0  0  0
   -6.6269  -31.4367  -35.5780 N   0  0  0  0  0  0  0  0  0  0  0  0
   -8.2008  -29.8510  -35.0097 N   0  0  0  0  0  0  0  0  0  0  0  0
   -5.9549  -29.4499  -34.5821 O   0  0  0  0  0  0  0  0  0  0  0  0
  -23.9184  -20.8076  -36.4749 H   0  0  0  0  0  0  0  0  0  0  0  0
  -23.9219  -22.1902  -35.3677 H   0  0  0  0  0  0  0  0  0  0  0  0
  -25.4514  -21.4498  -35.8501 H   0  0  0  0  0  0  0  0  0  0  0  0
   -3.0552  -32.8757  -33.1952 H   0  0  0  0  0  0  0  0  0  0  0  0
   -2.7449  -32.8096  -34.9378 H   0  0  0  0  0  0  0  0  0  0  0  0
   -3.1655  -31.3307  -34.0625 H   0  0  0  0  0  0  0  0  0  0  0  0
  -25.2445  -22.3132  -38.1144 H   0  0  0  0  0  0  0  0  0  0  0  0
  -24.9109  -23.6449  -37.0220 H   0  0  0  0  0  0  0  0  0  0  0  0
   -5.4330  -32.2875  -33.5852 H   0  0  0  0  0  0  0  0  0  0  0  0
   -5.0012  -33.7596  -34.4579 H   0  0  0  0  0  0  0  0  0  0  0  0
  -22.7647  -21.9741  -38.3927 H   0  0  0  0  0  0  0  0  0  0  0  0
  -23.3189  -23.5387  -38.9463 H   0  0  0  0  0  0  0  0  0  0  0  0
  -22.5003  -24.6288  -36.9085 H   0  0  0  0  0  0  0  0  0  0  0  0
  -22.0162  -23.0927  -36.2227 H   0  0  0  0  0  0  0  0  0  0  0  0
  -20.8100  -24.2363  -38.7916 H   0  0  0  0  0  0  0  0  0  0  0  0
  -20.3087  -22.7855  -37.9417 H   0  0  0  0  0  0  0  0  0  0  0  0
  -20.0498  -25.6666  -36.9744 H   0  0  0  0  0  0  0  0  0  0  0  0
  -19.8367  -24.2892  -35.8893 H   0  0  0  0  0  0  0  0  0  0  0  0
  -18.2660  -24.6660  -38.4956 H   0  0  0  0  0  0  0  0  0  0  0  0
  -18.0115  -23.4093  -37.2987 H   0  0  0  0  0  0  0  0  0  0  0  0
  -17.6428  -26.3813  -36.7399 H   0  0  0  0  0  0  0  0  0  0  0  0
  -17.3732  -25.0756  -35.5981 H   0  0  0  0  0  0  0  0  0  0  0  0
  -15.6148  -24.2052  -37.3751 H   0  0  0  0  0  0  0  0  0  0  0  0
  -15.7676  -25.8140  -38.0563 H   0  0  0  0  0  0  0  0  0  0  0  0
  -14.9918  -25.2688  -35.1420 H   0  0  0  0  0  0  0  0  0  0  0  0
  -15.0564  -26.8497  -35.9267 H   0  0  0  0  0  0  0  0  0  0  0  0
  -13.2318  -24.5280  -36.7530 H   0  0  0  0  0  0  0  0  0  0  0  0
  -13.2842  -26.1083  -37.5385 H   0  0  0  0  0  0  0  0  0  0  0  0
  -12.5267  -27.2237  -35.4807 H   0  0  0  0  0  0  0  0  0  0  0  0
  -12.6539  -25.7149  -34.5724 H   0  0  0  0  0  0  0  0  0  0  0  0
  -10.8138  -26.0959  -36.9899 H   0  0  0  0  0  0  0  0  0  0  0  0
  -10.8467  -24.6970  -35.9223 H   0  0  0  0  0  0  0  0  0  0  0  0
  -10.2684  -26.3997  -34.0321 H   0  0  0  0  0  0  0  0  0  0  0  0
   -8.9878  -25.8982  -35.1302 H   0  0  0  0  0  0  0  0  0  0  0  0
   -9.2554  -27.9833  -36.4516 H   0  0  0  0  0  0  0  0  0  0  0  0
  -10.6286  -28.4712  -35.4547 H   0  0  0  0  0  0  0  0  0  0  0  0
   -4.6310  -31.2238  -36.0028 H   0  0  0  0  0  0  0  0  0  0  0  0
   -5.3560  -32.7532  -36.5295 H   0  0  0  0  0  0  0  0  0  0  0  0
   -7.8367  -27.9653  -34.3111 H   0  0  0  0  0  0  0  0  0  0  0  0
   -9.1740  -28.8192  -33.5210 H   0  0  0  0  0  0  0  0  0  0  0  0
   -7.4295  -31.9630  -35.9091 H   0  0  0  0  0  0  0  0  0  0  0  0
   -8.8567  -30.5038  -35.4354 H   0  0  0  0  0  0  0  0  0  0  0  0
  1 21  1  0  0  0  0
  1 22  1  0  0  0  0
  1 23  2  0  0  0  0
  2  4  1  0  0  0  0
  3  5  1  0  0  0  0
  4  6  1  0  0  0  0
  5 19  1  0  0  0  0
  6  7  1  0  0  0  0
  7  8  1  0  0  0  0
  8  9  1  0  0  0  0
  9 10  1  0  0  0  0
 10 11  1  0  0  0  0
 11 12  1  0  0  0  0
 12 13  1  0  0  0  0
 13 14  1  0  0  0  0
 14 15  1  0  0  0  0
 15 16  1  0  0  0  0
 16 17  1  0  0  0  0
 17 18  1  0  0  0  0
 18 20  1  0  0  0  0
 19 21  1  0  0  0  0
 20 22  1  0  0  0  0
  2 24  1  0  0  0  0
  2 25  1  0  0  0  0
  2 26  1  0  0  0  0
  3 27  1  0  0  0  0
  3 28  1  0  0  0  0
  3 29  1  0  0  0  0
  4 30  1  0  0  0  0
  4 31  1  0  0  0  0
  5 32  1  0  0  0  0
  5 33  1  0  0  0  0
  6 34  1  0  0  0  0
  6 35  1  0  0  0  0
  7 36  1  0  0  0  0
  7 37  1  0  0  0  0
  8 38  1  0  0  0  0
  8 39  1  0  0  0  0
  9 40  1  0  0  0  0
  9 41  1  0  0  0  0
 10 42  1  0  0  0  0
 10 43  1  0  0  0  0
 11 44  1  0  0  0  0
 11 45  1  0  0  0  0
 12 46  1  0  0  0  0
 12 47  1  0  0  0  0
 13 48  1  0  0  0  0
 13 49  1  0  0  0  0
 14 50  1  0  0  0  0
 14 51  1  0  0  0  0
 15 52  1  0  0  0  0
 15 53  1  0  0  0  0
 16 54  1  0  0  0  0
 16 55  1  0  0  0  0
 17 56  1  0  0  0  0
 17 57  1  0  0  0  0
 18 58  1  0  0  0  0
 18 59  1  0  0  0  0
 19 60  1  0  0  0  0
 19 61  1  0  0  0  0
 20 62  1  0  0  0  0
 20 63  1  0  0  0  0
 21 64  1  0  0  0  0
 22 65  1  0  0  0  0
M  END
> <Name>
IA_103.cdx

> <SourceTag>
IA_103

> <Gold.Version>
5.2

> <Gold.Id.Protein>
6HGV|6HGV_protein|mol2

> <Gold.Goldscore.Fitness>
73.8064

> <Gold.Goldscore.Internal.Vdw>
-8.0425

> <Gold.Goldscore.Internal.Torsion>
-6.2896

> <Gold.Goldscore.External.Vdw>
58.3842

> <Gold.Goldscore.Internal.HBond>
0.0000

> <Gold.Goldscore.External.HBond>
0.0000

> <Gold.Goldscore.Internal.Correction>
-7.8602

> <Gold.Goldscore.Internal.Vdw.Weighted>
-8.0425

> <Gold.Goldscore.Internal.Torsion.Weighted>
-6.2896

> <Gold.Goldscore.External.Vdw.Weighted>
80.2783

> <Gold.Goldscore.Internal.HBond.Weighted>
0.0000

> <Gold.Goldscore.External.HBond.Weighted>
0.0000

> <Gold.Goldscore.Internal.Correction.Weighted>
-7.8602

> <Gold.Protein.RotatedTorsions>
[ 3781 1176 1175 1172 ] final -150.01 input   60.00 | X-H torsion
[ 3847 1247 1246 1244 ] final   96.49 input   60.00 | X-H torsion
[ 4507 1931 1930 1928 ] final  109.61 input   60.00 | X-H torsion
[ 3677 1070 1069 1066 ] final  -18.34 input   60.00 | X-H torsion
[ 3525  925  924  922 ] final   39.63 input   59.99 | X-H torsion
[ 4531 1957 1955 1953 ] final  163.28 input   60.00 | X-H torsion

> <Gold.Protein.ActiveResidues>
 PHE267  PRO268  MET310  ASP335  TRP336  MET339  TYR343  THR360  PRO361  ILE363
 PRO371  SER374  ILE375  ASN378  PHE381  TYR383  GLN384  PHE387  LEU408  LEU417
 MET419  LEU428  TYR466  MET469  ASN472  ASP496  VAL498  LEU499  MET503  HIS524
 TRP525

> <Gold.Protein.RotatedAtoms>
   -3.1085  -29.7257  -30.8385 H   0  0  0  0  0  0  0  0  0  0  0  0  # atno 3525 bound_to 925
  -12.7441  -23.4956  -30.7735 H   0  0  0  0  0  0  0  0  0  0  0  0  # atno 3677 bound_to 1070
   -9.2666  -36.3478  -33.3128 H   0  0  0  0  0  0  0  0  0  0  0  0  # atno 3781 bound_to 1176
  -14.4256  -28.6135  -37.5989 H   0  0  0  0  0  0  0  0  0  0  0  0  # atno 3847 bound_to 1247
  -12.4317  -24.0299  -39.2176 H   0  0  0  0  0  0  0  0  0  0  0  0  # atno 4507 bound_to 1931
   -1.7088  -33.9343  -36.9321 H   0  0  0  0  0  0  0  0  0  0  0  0  # atno 4531 bound_to 1957
  -10.2540  -37.3221  -32.4622 LP  0  0  0  0  0  0  0  0  0  0  0  0  # atno 5205 bound_to 1176
  -10.5955  -36.9669  -34.0190 LP  0  0  0  0  0  0  0  0  0  0  0  0  # atno 5206 bound_to 1176
  -15.9526  -28.4221  -37.0701 LP  0  0  0  0  0  0  0  0  0  0  0  0  # atno 5215 bound_to 1247
  -15.1916  -27.1977  -37.8372 LP  0  0  0  0  0  0  0  0  0  0  0  0  # atno 5216 bound_to 1247
  -13.3662  -25.3622  -39.2079 LP  0  0  0  0  0  0  0  0  0  0  0  0  # atno 5217 bound_to 1931
  -13.4014  -24.3459  -40.4857 LP  0  0  0  0  0  0  0  0  0  0  0  0  # atno 5218 bound_to 1931
  -11.2606  -23.3594  -31.4283 LP  0  0  0  0  0  0  0  0  0  0  0  0  # atno 5224 bound_to 1070
  -11.8438  -22.1751  -30.4671 LP  0  0  0  0  0  0  0  0  0  0  0  0  # atno 5225 bound_to 1070

$$$$
IA_103.cdx|SeH_inactivess_minimized|sdf|5|dock6
  -GOLD-   4172118303D 1   1.00000     0.00000

 65 64  0  0  0  0  0  0  0  0  1 V2000
   -7.1579  -30.0129  -35.0405 C   0  0  0  0  0  0  0  0  0  0  0  0
  -25.1737  -24.7040  -35.3186 C   0  0  0  0  0  0  0  0  0  0  0  0
   -3.5442  -32.9435  -34.4680 C   0  0  0  0  0  0  0  0  0  0  0  0
  -23.6958  -24.4646  -35.0525 C   0  0  0  0  0  0  0  0  0  0  0  0
   -4.5028  -31.7889  -34.2133 C   0  0  0  0  0  0  0  0  0  0  0  0
  -22.7873  -24.9279  -36.1936 C   0  0  0  0  0  0  0  0  0  0  0  0
  -21.2854  -24.7175  -35.9731 C   0  0  0  0  0  0  0  0  0  0  0  0
  -20.3714  -25.2145  -37.0973 C   0  0  0  0  0  0  0  0  0  0  0  0
  -18.8844  -24.9777  -36.8218 C   0  0  0  0  0  0  0  0  0  0  0  0
  -18.0135  -25.6257  -37.9009 C   0  0  0  0  0  0  0  0  0  0  0  0
  -16.5664  -25.1231  -37.9014 C   0  0  0  0  0  0  0  0  0  0  0  0
  -15.6928  -25.5966  -36.7355 C   0  0  0  0  0  0  0  0  0  0  0  0
  -14.2120  -25.2501  -36.9020 C   0  0  0  0  0  0  0  0  0  0  0  0
  -13.4236  -25.5626  -35.6280 C   0  0  0  0  0  0  0  0  0  0  0  0
  -11.9726  -25.0893  -35.7415 C   0  0  0  0  0  0  0  0  0  0  0  0
  -11.2347  -25.2430  -34.4098 C   0  0  0  0  0  0  0  0  0  0  0  0
  -10.7905  -26.6801  -34.1201 C   0  0  0  0  0  0  0  0  0  0  0  0
   -9.5255  -27.0907  -34.8811 C   0  0  0  0  0  0  0  0  0  0  0  0
   -4.9655  -31.1132  -35.4984 C   0  0  0  0  0  0  0  0  0  0  0  0
   -9.1011  -28.5248  -34.5781 C   0  0  0  0  0  0  0  0  0  0  0  0
   -5.7822  -29.9488  -35.2446 N   0  0  0  0  0  0  0  0  0  0  0  0
   -7.7019  -28.7461  -34.8173 N   0  0  0  0  0  0  0  0  0  0  0  0
   -7.8160  -31.0524  -35.0536 O   0  0  0  0  0  0  0  0  0  0  0  0
  -25.3648  -25.7555  -35.5549 H   0  0  0  0  0  0  0  0  0  0  0  0
  -25.5045  -24.1002  -36.1698 H   0  0  0  0  0  0  0  0  0  0  0  0
  -25.7870  -24.4257  -34.4567 H   0  0  0  0  0  0  0  0  0  0  0  0
   -2.5732  -32.5774  -34.8164 H   0  0  0  0  0  0  0  0  0  0  0  0
   -3.3813  -33.5085  -33.5446 H   0  0  0  0  0  0  0  0  0  0  0  0
   -3.9418  -33.6342  -35.2181 H   0  0  0  0  0  0  0  0  0  0  0  0
  -23.4093  -24.9509  -34.1135 H   0  0  0  0  0  0  0  0  0  0  0  0
  -23.5392  -23.3894  -34.9028 H   0  0  0  0  0  0  0  0  0  0  0  0
   -3.9975  -31.0463  -33.5849 H   0  0  0  0  0  0  0  0  0  0  0  0
   -5.3678  -32.1568  -33.6488 H   0  0  0  0  0  0  0  0  0  0  0  0
  -23.0948  -24.4182  -37.1145 H   0  0  0  0  0  0  0  0  0  0  0  0
  -22.9609  -25.9968  -36.3720 H   0  0  0  0  0  0  0  0  0  0  0  0
  -21.0021  -25.2201  -35.0394 H   0  0  0  0  0  0  0  0  0  0  0  0
  -21.0892  -23.6509  -35.8104 H   0  0  0  0  0  0  0  0  0  0  0  0
  -20.5500  -26.2796  -37.2842 H   0  0  0  0  0  0  0  0  0  0  0  0
  -20.6527  -24.6898  -38.0191 H   0  0  0  0  0  0  0  0  0  0  0  0
  -18.6240  -25.3947  -35.8440 H   0  0  0  0  0  0  0  0  0  0  0  0
  -18.6837  -23.9006  -36.7841 H   0  0  0  0  0  0  0  0  0  0  0  0
  -18.0316  -26.7159  -37.7880 H   0  0  0  0  0  0  0  0  0  0  0  0
  -18.4458  -25.4130  -38.8869 H   0  0  0  0  0  0  0  0  0  0  0  0
  -16.5730  -24.0259  -37.9044 H   0  0  0  0  0  0  0  0  0  0  0  0
  -16.0952  -25.4296  -38.8438 H   0  0  0  0  0  0  0  0  0  0  0  0
  -15.8085  -26.6775  -36.5949 H   0  0  0  0  0  0  0  0  0  0  0  0
  -16.0699  -25.1271  -35.8181 H   0  0  0  0  0  0  0  0  0  0  0  0
  -13.7840  -25.8197  -37.7345 H   0  0  0  0  0  0  0  0  0  0  0  0
  -14.1084  -24.1862  -37.1468 H   0  0  0  0  0  0  0  0  0  0  0  0
  -13.4436  -26.6431  -35.4399 H   0  0  0  0  0  0  0  0  0  0  0  0
  -13.9033  -25.0755  -34.7704 H   0  0  0  0  0  0  0  0  0  0  0  0
  -11.9530  -24.0383  -36.0541 H   0  0  0  0  0  0  0  0  0  0  0  0
  -11.4673  -25.6704  -36.5210 H   0  0  0  0  0  0  0  0  0  0  0  0
  -10.3412  -24.6063  -34.4214 H   0  0  0  0  0  0  0  0  0  0  0  0
  -11.8684  -24.8817  -33.5908 H   0  0  0  0  0  0  0  0  0  0  0  0
  -11.6151  -27.3481  -34.3962 H   0  0  0  0  0  0  0  0  0  0  0  0
  -10.6308  -26.8051  -33.0422 H   0  0  0  0  0  0  0  0  0  0  0  0
   -8.6986  -26.4281  -34.6029 H   0  0  0  0  0  0  0  0  0  0  0  0
   -9.6894  -26.9725  -35.9592 H   0  0  0  0  0  0  0  0  0  0  0  0
   -4.0996  -30.7765  -36.0772 H   0  0  0  0  0  0  0  0  0  0  0  0
   -5.5460  -31.8003  -36.1220 H   0  0  0  0  0  0  0  0  0  0  0  0
   -9.2836  -28.7531  -33.5232 H   0  0  0  0  0  0  0  0  0  0  0  0
   -9.6633  -29.2423  -35.1840 H   0  0  0  0  0  0  0  0  0  0  0  0
   -5.3310  -29.0397  -35.2136 H   0  0  0  0  0  0  0  0  0  0  0  0
   -7.0674  -27.9501  -34.7795 H   0  0  0  0  0  0  0  0  0  0  0  0
  1 21  1  0  0  0  0
  1 22  1  0  0  0  0
  1 23  2  0  0  0  0
  2  4  1  0  0  0  0
  3  5  1  0  0  0  0
  4  6  1  0  0  0  0
  5 19  1  0  0  0  0
  6  7  1  0  0  0  0
  7  8  1  0  0  0  0
  8  9  1  0  0  0  0
  9 10  1  0  0  0  0
 10 11  1  0  0  0  0
 11 12  1  0  0  0  0
 12 13  1  0  0  0  0
 13 14  1  0  0  0  0
 14 15  1  0  0  0  0
 15 16  1  0  0  0  0
 16 17  1  0  0  0  0
 17 18  1  0  0  0  0
 18 20  1  0  0  0  0
 19 21  1  0  0  0  0
 20 22  1  0  0  0  0
  2 24  1  0  0  0  0
  2 25  1  0  0  0  0
  2 26  1  0  0  0  0
  3 27  1  0  0  0  0
  3 28  1  0  0  0  0
  3 29  1  0  0  0  0
  4 30  1  0  0  0  0
  4 31  1  0  0  0  0
  5 32  1  0  0  0  0
  5 33  1  0  0  0  0
  6 34  1  0  0  0  0
  6 35  1  0  0  0  0
  7 36  1  0  0  0  0
  7 37  1  0  0  0  0
  8 38  1  0  0  0  0
  8 39  1  0  0  0  0
  9 40  1  0  0  0  0
  9 41  1  0  0  0  0
 10 42  1  0  0  0  0
 10 43  1  0  0  0  0
 11 44  1  0  0  0  0
 11 45  1  0  0  0  0
 12 46  1  0  0  0  0
 12 47  1  0  0  0  0
 13 48  1  0  0  0  0
 13 49  1  0  0  0  0
 14 50  1  0  0  0  0
 14 51  1  0  0  0  0
 15 52  1  0  0  0  0
 15 53  1  0  0  0  0
 16 54  1  0  0  0  0
 16 55  1  0  0  0  0
 17 56  1  0  0  0  0
 17 57  1  0  0  0  0
 18 58  1  0  0  0  0
 18 59  1  0  0  0  0
 19 60  1  0  0  0  0
 19 61  1  0  0  0  0
 20 62  1  0  0  0  0
 20 63  1  0  0  0  0
 21 64  1  0  0  0  0
 22 65  1  0  0  0  0
M  END
> <Name>
IA_103.cdx

> <SourceTag>
IA_103

> <Gold.Version>
5.2

> <Gold.Id.Protein>
6HGV|6HGV_protein|mol2

> <Gold.Goldscore.Fitness>
73.0107

> <Gold.Goldscore.Internal.Vdw>
-8.7483

> <Gold.Goldscore.Internal.Torsion>
-5.0881

> <Gold.Goldscore.External.Vdw>
57.4450

> <Gold.Goldscore.Internal.HBond>
0.0000

> <Gold.Goldscore.External.HBond>
0.0000

> <Gold.Goldscore.Internal.Correction>
-7.8602

> <Gold.Goldscore.Internal.Vdw.Weighted>
-8.7483

> <Gold.Goldscore.Internal.Torsion.Weighted>
-5.0881

> <Gold.Goldscore.External.Vdw.Weighted>
78.9869

> <Gold.Goldscore.Internal.HBond.Weighted>
0.0000

> <Gold.Goldscore.External.HBond.Weighted>
0.0000

> <Gold.Goldscore.Internal.Correction.Weighted>
-7.8602

> <Gold.Protein.RotatedTorsions>
[ 3781 1176 1175 1172 ] final  -66.66 input   60.00 | X-H torsion
[ 3847 1247 1246 1244 ] final  113.03 input   60.00 | X-H torsion
[ 4507 1931 1930 1928 ] final  101.47 input   60.00 | X-H torsion
[ 3677 1070 1069 1066 ] final  -80.08 input   60.00 | X-H torsion
[ 3525  925  924  922 ] final   50.69 input   59.99 | X-H torsion
[ 4531 1957 1955 1953 ] final  -70.42 input   60.00 | X-H torsion

> <Gold.Protein.ActiveResidues>
 PHE267  PRO268  MET310  ASP335  TRP336  MET339  TYR343  THR360  PRO361  ILE363
 PRO371  SER374  ILE375  ASN378  PHE381  TYR383  GLN384  PHE387  LEU408  LEU417
 MET419  LEU428  TYR466  MET469  ASN472  ASP496  VAL498  LEU499  MET503  HIS524
 TRP525

> <Gold.Protein.RotatedAtoms>
   -2.9444  -29.7945  -30.8687 H   0  0  0  0  0  0  0  0  0  0  0  0  # atno 3525 bound_to 925
  -12.0319  -23.8390  -31.3192 H   0  0  0  0  0  0  0  0  0  0  0  0  # atno 3677 bound_to 1070
  -10.1415  -36.6152  -34.1573 H   0  0  0  0  0  0  0  0  0  0  0  0  # atno 3781 bound_to 1176
  -14.3330  -28.3917  -37.7201 H   0  0  0  0  0  0  0  0  0  0  0  0  # atno 3847 bound_to 1247
  -12.4353  -24.1180  -39.1180 H   0  0  0  0  0  0  0  0  0  0  0  0  # atno 4507 bound_to 1931
   -1.8203  -32.2681  -36.8821 H   0  0  0  0  0  0  0  0  0  0  0  0  # atno 4531 bound_to 1957
   -9.2979  -36.5703  -32.7665 LP  0  0  0  0  0  0  0  0  0  0  0  0  # atno 5205 bound_to 1176
  -10.6706  -37.4495  -32.8642 LP  0  0  0  0  0  0  0  0  0  0  0  0  # atno 5206 bound_to 1176
  -15.7941  -28.6410  -37.0486 LP  0  0  0  0  0  0  0  0  0  0  0  0  # atno 5215 bound_to 1247
  -15.4434  -27.2022  -37.7366 LP  0  0  0  0  0  0  0  0  0  0  0  0  # atno 5216 bound_to 1247
  -13.4427  -25.3805  -39.3163 LP  0  0  0  0  0  0  0  0  0  0  0  0  # atno 5217 bound_to 1931
  -13.3213  -24.2389  -40.4776 LP  0  0  0  0  0  0  0  0  0  0  0  0  # atno 5218 bound_to 1931
  -11.1633  -22.5032  -30.9885 LP  0  0  0  0  0  0  0  0  0  0  0  0  # atno 5224 bound_to 1070
  -12.6583  -22.6855  -30.3573 LP  0  0  0  0  0  0  0  0  0  0  0  0  # atno 5225 bound_to 1070

$$$$
IA_103.cdx|SeH_inactivess_minimized|sdf|5|dock8
  -GOLD-   4172118313D 1   1.00000     0.00000

 65 64  0  0  0  0  0  0  0  0  1 V2000
   -5.7909  -31.0417  -34.6290 C   0  0  0  0  0  0  0  0  0  0  0  0
  -23.4098  -24.2372  -34.5519 C   0  0  0  0  0  0  0  0  0  0  0  0
   -4.9477  -33.3806  -32.5798 C   0  0  0  0  0  0  0  0  0  0  0  0
  -22.8339  -25.0031  -35.7327 C   0  0  0  0  0  0  0  0  0  0  0  0
   -4.5014  -34.0155  -33.8891 C   0  0  0  0  0  0  0  0  0  0  0  0
  -21.5065  -24.4347  -36.2398 C   0  0  0  0  0  0  0  0  0  0  0  0
  -20.8816  -25.1700  -37.4303 C   0  0  0  0  0  0  0  0  0  0  0  0
  -19.4762  -24.7126  -37.8322 C   0  0  0  0  0  0  0  0  0  0  0  0
  -18.3830  -25.1930  -36.8744 C   0  0  0  0  0  0  0  0  0  0  0  0
  -16.9957  -24.7713  -37.3647 C   0  0  0  0  0  0  0  0  0  0  0  0
  -15.8488  -25.3953  -36.5635 C   0  0  0  0  0  0  0  0  0  0  0  0
  -14.4352  -25.0880  -37.0677 C   0  0  0  0  0  0  0  0  0  0  0  0
  -13.3312  -25.6623  -36.1779 C   0  0  0  0  0  0  0  0  0  0  0  0
  -11.9650  -25.0776  -36.5437 C   0  0  0  0  0  0  0  0  0  0  0  0
  -10.8827  -25.5373  -35.5640 C   0  0  0  0  0  0  0  0  0  0  0  0
  -10.4977  -26.9977  -35.8101 C   0  0  0  0  0  0  0  0  0  0  0  0
   -9.2270  -27.4273  -35.0703 C   0  0  0  0  0  0  0  0  0  0  0  0
   -8.8267  -28.8811  -35.3430 C   0  0  0  0  0  0  0  0  0  0  0  0
   -4.2755  -32.9903  -34.9939 C   0  0  0  0  0  0  0  0  0  0  0  0
   -7.5593  -29.2878  -34.5968 C   0  0  0  0  0  0  0  0  0  0  0  0
   -5.4655  -32.2251  -35.2863 N   0  0  0  0  0  0  0  0  0  0  0  0
   -6.9909  -30.5064  -35.1027 N   0  0  0  0  0  0  0  0  0  0  0  0
   -5.1101  -30.5278  -33.7424 O   0  0  0  0  0  0  0  0  0  0  0  0
  -24.3846  -24.6405  -34.2602 H   0  0  0  0  0  0  0  0  0  0  0  0
  -23.5449  -23.1839  -34.8175 H   0  0  0  0  0  0  0  0  0  0  0  0
  -22.7447  -24.2775  -33.6844 H   0  0  0  0  0  0  0  0  0  0  0  0
   -4.2387  -32.6125  -32.2546 H   0  0  0  0  0  0  0  0  0  0  0  0
   -5.9262  -32.9062  -32.7056 H   0  0  0  0  0  0  0  0  0  0  0  0
   -5.0366  -34.1269  -31.7843 H   0  0  0  0  0  0  0  0  0  0  0  0
  -23.5709  -25.0356  -36.5427 H   0  0  0  0  0  0  0  0  0  0  0  0
  -22.6681  -26.0427  -35.4252 H   0  0  0  0  0  0  0  0  0  0  0  0
   -5.2718  -34.7237  -34.2156 H   0  0  0  0  0  0  0  0  0  0  0  0
   -3.5841  -34.5908  -33.7162 H   0  0  0  0  0  0  0  0  0  0  0  0
  -20.7928  -24.4172  -35.4075 H   0  0  0  0  0  0  0  0  0  0  0  0
  -21.6572  -23.3859  -36.5257 H   0  0  0  0  0  0  0  0  0  0  0  0
  -21.5503  -25.0562  -38.2931 H   0  0  0  0  0  0  0  0  0  0  0  0
  -20.8500  -26.2450  -37.2159 H   0  0  0  0  0  0  0  0  0  0  0  0
  -19.2495  -25.0448  -38.8517 H   0  0  0  0  0  0  0  0  0  0  0  0
  -19.4719  -23.6155  -37.8588 H   0  0  0  0  0  0  0  0  0  0  0  0
  -18.4245  -26.2835  -36.7915 H   0  0  0  0  0  0  0  0  0  0  0  0
  -18.5616  -24.7800  -35.8746 H   0  0  0  0  0  0  0  0  0  0  0  0
  -16.8870  -25.0160  -38.4276 H   0  0  0  0  0  0  0  0  0  0  0  0
  -16.9052  -23.6801  -37.2911 H   0  0  0  0  0  0  0  0  0  0  0  0
  -15.9802  -26.4845  -36.5471 H   0  0  0  0  0  0  0  0  0  0  0  0
  -15.9335  -25.0603  -35.5220 H   0  0  0  0  0  0  0  0  0  0  0  0
  -14.3019  -24.0052  -37.1739 H   0  0  0  0  0  0  0  0  0  0  0  0
  -14.3374  -25.5083  -38.0767 H   0  0  0  0  0  0  0  0  0  0  0  0
  -13.5432  -25.4410  -35.1259 H   0  0  0  0  0  0  0  0  0  0  0  0
  -13.3042  -26.7535  -36.2832 H   0  0  0  0  0  0  0  0  0  0  0  0
  -12.0218  -23.9821  -36.5404 H   0  0  0  0  0  0  0  0  0  0  0  0
  -11.6944  -25.3849  -37.5612 H   0  0  0  0  0  0  0  0  0  0  0  0
  -11.2453  -25.4204  -34.5357 H   0  0  0  0  0  0  0  0  0  0  0  0
  -10.0037  -24.8926  -35.6747 H   0  0  0  0  0  0  0  0  0  0  0  0
  -11.3198  -27.6441  -35.4783 H   0  0  0  0  0  0  0  0  0  0  0  0
  -10.3739  -27.1724  -36.8857 H   0  0  0  0  0  0  0  0  0  0  0  0
   -9.4024  -27.2927  -33.9963 H   0  0  0  0  0  0  0  0  0  0  0  0
   -8.4005  -26.7590  -35.3411 H   0  0  0  0  0  0  0  0  0  0  0  0
   -8.6456  -29.0169  -36.4149 H   0  0  0  0  0  0  0  0  0  0  0  0
   -9.6513  -29.5486  -35.0646 H   0  0  0  0  0  0  0  0  0  0  0  0
   -3.5030  -32.2767  -34.6903 H   0  0  0  0  0  0  0  0  0  0  0  0
   -3.9497  -33.4710  -35.9217 H   0  0  0  0  0  0  0  0  0  0  0  0
   -6.7959  -28.5110  -34.7066 H   0  0  0  0  0  0  0  0  0  0  0  0
   -7.7538  -29.4256  -33.5286 H   0  0  0  0  0  0  0  0  0  0  0  0
   -6.0950  -32.5669  -36.0059 H   0  0  0  0  0  0  0  0  0  0  0  0
   -7.4587  -30.9817  -35.8725 H   0  0  0  0  0  0  0  0  0  0  0  0
  1 21  1  0  0  0  0
  1 22  1  0  0  0  0
  1 23  2  0  0  0  0
  2  4  1  0  0  0  0
  3  5  1  0  0  0  0
  4  6  1  0  0  0  0
  5 19  1  0  0  0  0
  6  7  1  0  0  0  0
  7  8  1  0  0  0  0
  8  9  1  0  0  0  0
  9 10  1  0  0  0  0
 10 11  1  0  0  0  0
 11 12  1  0  0  0  0
 12 13  1  0  0  0  0
 13 14  1  0  0  0  0
 14 15  1  0  0  0  0
 15 16  1  0  0  0  0
 16 17  1  0  0  0  0
 17 18  1  0  0  0  0
 18 20  1  0  0  0  0
 19 21  1  0  0  0  0
 20 22  1  0  0  0  0
  2 24  1  0  0  0  0
  2 25  1  0  0  0  0
  2 26  1  0  0  0  0
  3 27  1  0  0  0  0
  3 28  1  0  0  0  0
  3 29  1  0  0  0  0
  4 30  1  0  0  0  0
  4 31  1  0  0  0  0
  5 32  1  0  0  0  0
  5 33  1  0  0  0  0
  6 34  1  0  0  0  0
  6 35  1  0  0  0  0
  7 36  1  0  0  0  0
  7 37  1  0  0  0  0
  8 38  1  0  0  0  0
  8 39  1  0  0  0  0
  9 40  1  0  0  0  0
  9 41  1  0  0  0  0
 10 42  1  0  0  0  0
 10 43  1  0  0  0  0
 11 44  1  0  0  0  0
 11 45  1  0  0  0  0
 12 46  1  0  0  0  0
 12 47  1  0  0  0  0
 13 48  1  0  0  0  0
 13 49  1  0  0  0  0
 14 50  1  0  0  0  0
 14 51  1  0  0  0  0
 15 52  1  0  0  0  0
 15 53  1  0  0  0  0
 16 54  1  0  0  0  0
 16 55  1  0  0  0  0
 17 56  1  0  0  0  0
 17 57  1  0  0  0  0
 18 58  1  0  0  0  0
 18 59  1  0  0  0  0
 19 60  1  0  0  0  0
 19 61  1  0  0  0  0
 20 62  1  0  0  0  0
 20 63  1  0  0  0  0
 21 64  1  0  0  0  0
 22 65  1  0  0  0  0
M  END
> <Name>
IA_103.cdx

> <SourceTag>
IA_103

> <Gold.Version>
5.2

> <Gold.Id.Protein>
6HGV|6HGV_protein|mol2

> <Gold.Goldscore.Fitness>
72.9624

> <Gold.Goldscore.Internal.Vdw>
-7.1875

> <Gold.Goldscore.Internal.Torsion>
-3.8519

> <Gold.Goldscore.External.Vdw>
55.3545

> <Gold.Goldscore.Internal.HBond>
0.0000

> <Gold.Goldscore.External.HBond>
0.0292

> <Gold.Goldscore.Internal.Correction>
-7.8602

> <Gold.Goldscore.Hbonds>
donor molecule, donor type, donor heavy atom, donor atom, acceptor molecule, acceptor atom, score
      P1  H   925  3525       L1    23  0.01

> <Gold.Goldscore.Internal.Vdw.Weighted>
-7.1875

> <Gold.Goldscore.Internal.Torsion.Weighted>
-3.8519

> <Gold.Goldscore.External.Vdw.Weighted>
76.1124

> <Gold.Goldscore.Internal.HBond.Weighted>
0.0000

> <Gold.Goldscore.External.HBond.Weighted>
0.0292

> <Gold.Goldscore.Internal.Correction.Weighted>
-7.8602

> <Gold.Protein.RotatedTorsions>
[ 3781 1176 1175 1172 ] final  -24.22 input   60.00 | X-H torsion
[ 3847 1247 1246 1244 ] final   88.66 input   60.00 | X-H torsion
[ 4507 1931 1930 1928 ] final  115.66 input   60.00 | X-H torsion
[ 3677 1070 1069 1066 ] final  -97.89 input   60.00 | X-H torsion
[ 3525  925  924  922 ] final   20.89 input   59.99 | X-H torsion
[ 4531 1957 1955 1953 ] final  -62.64 input   60.00 | X-H torsion

> <Gold.Protein.ActiveResidues>
 PHE267  PRO268  MET310  ASP335  TRP336  MET339  TYR343  THR360  PRO361  ILE363
 PRO371  SER374  ILE375  ASN378  PHE381  TYR383  GLN384  PHE387  LEU408  LEU417
 MET419  LEU428  TYR466  MET469  ASN472  ASP496  VAL498  LEU499  MET503  HIS524
 TRP525

> <Gold.Protein.RotatedAtoms>
   -3.3669  -29.6246  -30.7122 H   0  0  0  0  0  0  0  0  0  0  0  0  # atno 3525 bound_to 925
  -11.7658  -23.7674  -31.4092 H   0  0  0  0  0  0  0  0  0  0  0  0  # atno 3677 bound_to 1070
  -10.6449  -37.0245  -33.9614 H   0  0  0  0  0  0  0  0  0  0  0  0  # atno 3781 bound_to 1176
  -14.4922  -28.7043  -37.5380 H   0  0  0  0  0  0  0  0  0  0  0  0  # atno 3847 bound_to 1247
  -12.4374  -23.9716  -39.2971 H   0  0  0  0  0  0  0  0  0  0  0  0  # atno 4507 bound_to 1931
   -1.9383  -32.2270  -36.8589 H   0  0  0  0  0  0  0  0  0  0  0  0  # atno 4531 bound_to 1957
   -9.2863  -36.3241  -33.4030 LP  0  0  0  0  0  0  0  0  0  0  0  0  # atno 5205 bound_to 1176
  -10.1752  -37.2834  -32.4251 LP  0  0  0  0  0  0  0  0  0  0  0  0  # atno 5206 bound_to 1176
  -16.0063  -28.3072  -37.0930 LP  0  0  0  0  0  0  0  0  0  0  0  0  # atno 5215 bound_to 1247
  -15.0708  -27.2213  -37.8756 LP  0  0  0  0  0  0  0  0  0  0  0  0  # atno 5216 bound_to 1247
  -13.3053  -25.3383  -39.1329 LP  0  0  0  0  0  0  0  0  0  0  0  0  # atno 5217 bound_to 1931
  -13.4565  -24.4286  -40.4806 LP  0  0  0  0  0  0  0  0  0  0  0  0  # atno 5218 bound_to 1931
  -11.3114  -22.3230  -30.8130 LP  0  0  0  0  0  0  0  0  0  0  0  0  # atno 5224 bound_to 1070
  -12.7781  -22.9378  -30.4421 LP  0  0  0  0  0  0  0  0  0  0  0  0  # atno 5225 bound_to 1070

$$$$
IA_103.cdx|SeH_inactivess_minimized|sdf|5|dock7
  -GOLD-   4172118303D 1   1.00000     0.00000

 65 64  0  0  0  0  0  0  0  0  1 V2000
   -6.5756  -30.6586  -34.9819 C   0  0  0  0  0  0  0  0  0  0  0  0
  -24.8079  -21.7852  -37.8346 C   0  0  0  0  0  0  0  0  0  0  0  0
   -4.6325  -32.5467  -33.0736 C   0  0  0  0  0  0  0  0  0  0  0  0
  -24.3943  -22.5753  -39.0664 C   0  0  0  0  0  0  0  0  0  0  0  0
   -3.6705  -32.0290  -34.1335 C   0  0  0  0  0  0  0  0  0  0  0  0
  -22.8844  -22.5707  -39.3157 C   0  0  0  0  0  0  0  0  0  0  0  0
  -22.0415  -23.3467  -38.2978 C   0  0  0  0  0  0  0  0  0  0  0  0
  -20.5343  -23.3793  -38.5683 C   0  0  0  0  0  0  0  0  0  0  0  0
  -19.7573  -24.2507  -37.5783 C   0  0  0  0  0  0  0  0  0  0  0  0
  -18.2654  -24.2766  -37.9193 C   0  0  0  0  0  0  0  0  0  0  0  0
  -17.4257  -25.0861  -36.9261 C   0  0  0  0  0  0  0  0  0  0  0  0
  -15.9117  -25.0682  -37.1590 C   0  0  0  0  0  0  0  0  0  0  0  0
  -15.1121  -25.7182  -36.0281 C   0  0  0  0  0  0  0  0  0  0  0  0
  -13.6343  -25.8541  -36.4020 C   0  0  0  0  0  0  0  0  0  0  0  0
  -12.8609  -26.6362  -35.3377 C   0  0  0  0  0  0  0  0  0  0  0  0
  -11.3798  -26.7528  -35.7043 C   0  0  0  0  0  0  0  0  0  0  0  0
  -10.5903  -27.6752  -34.7701 C   0  0  0  0  0  0  0  0  0  0  0  0
   -9.1681  -27.9654  -35.2614 C   0  0  0  0  0  0  0  0  0  0  0  0
   -4.3633  -31.7122  -35.4534 C   0  0  0  0  0  0  0  0  0  0  0  0
   -8.5704  -29.2126  -34.6163 C   0  0  0  0  0  0  0  0  0  0  0  0
   -5.2374  -30.5662  -35.3549 N   0  0  0  0  0  0  0  0  0  0  0  0
   -7.1904  -29.4047  -34.9664 N   0  0  0  0  0  0  0  0  0  0  0  0
   -7.1487  -31.7101  -34.6998 O   0  0  0  0  0  0  0  0  0  0  0  0
  -24.4509  -22.2687  -36.9199 H   0  0  0  0  0  0  0  0  0  0  0  0
  -25.8992  -21.7201  -37.7793 H   0  0  0  0  0  0  0  0  0  0  0  0
  -24.4161  -20.7643  -37.8624 H   0  0  0  0  0  0  0  0  0  0  0  0
   -5.1223  -33.4679  -33.4050 H   0  0  0  0  0  0  0  0  0  0  0  0
   -4.0907  -32.7656  -32.1480 H   0  0  0  0  0  0  0  0  0  0  0  0
   -5.4065  -31.8083  -32.8425 H   0  0  0  0  0  0  0  0  0  0  0  0
  -24.9283  -22.1928  -39.9432 H   0  0  0  0  0  0  0  0  0  0  0  0
  -24.7187  -23.6151  -38.9375 H   0  0  0  0  0  0  0  0  0  0  0  0
   -2.9020  -32.7904  -34.3109 H   0  0  0  0  0  0  0  0  0  0  0  0
   -3.1608  -31.1363  -33.7522 H   0  0  0  0  0  0  0  0  0  0  0  0
  -22.5397  -21.5305  -39.3560 H   0  0  0  0  0  0  0  0  0  0  0  0
  -22.6892  -22.9885  -40.3116 H   0  0  0  0  0  0  0  0  0  0  0  0
  -22.4156  -24.3778  -38.2578 H   0  0  0  0  0  0  0  0  0  0  0  0
  -22.2070  -22.9292  -37.2974 H   0  0  0  0  0  0  0  0  0  0  0  0
  -20.3432  -23.7194  -39.5926 H   0  0  0  0  0  0  0  0  0  0  0  0
  -20.1578  -22.3501  -38.5114 H   0  0  0  0  0  0  0  0  0  0  0  0
  -20.1542  -25.2703  -37.6007 H   0  0  0  0  0  0  0  0  0  0  0  0
  -19.8960  -23.8658  -36.5612 H   0  0  0  0  0  0  0  0  0  0  0  0
  -18.1228  -24.6649  -38.9344 H   0  0  0  0  0  0  0  0  0  0  0  0
  -17.8810  -23.2487  -37.9281 H   0  0  0  0  0  0  0  0  0  0  0  0
  -17.7652  -26.1293  -36.9435 H   0  0  0  0  0  0  0  0  0  0  0  0
  -17.6325  -24.7130  -35.9152 H   0  0  0  0  0  0  0  0  0  0  0  0
  -15.5680  -24.0389  -37.3137 H   0  0  0  0  0  0  0  0  0  0  0  0
  -15.7074  -25.6025  -38.0954 H   0  0  0  0  0  0  0  0  0  0  0  0
  -15.1949  -25.1171  -35.1157 H   0  0  0  0  0  0  0  0  0  0  0  0
  -15.5277  -26.7084  -35.8058 H   0  0  0  0  0  0  0  0  0  0  0  0
  -13.1921  -24.8570  -36.5186 H   0  0  0  0  0  0  0  0  0  0  0  0
  -13.5455  -26.3631  -37.3694 H   0  0  0  0  0  0  0  0  0  0  0  0
  -13.2939  -27.6380  -35.2318 H   0  0  0  0  0  0  0  0  0  0  0  0
  -12.9709  -26.1300  -34.3723 H   0  0  0  0  0  0  0  0  0  0  0  0
  -11.2947  -27.1477  -36.7243 H   0  0  0  0  0  0  0  0  0  0  0  0
  -10.9201  -25.7571  -35.7125 H   0  0  0  0  0  0  0  0  0  0  0  0
  -11.1448  -28.6171  -34.6814 H   0  0  0  0  0  0  0  0  0  0  0  0
  -10.5523  -27.2359  -33.7658 H   0  0  0  0  0  0  0  0  0  0  0  0
   -8.5173  -27.1171  -35.0230 H   0  0  0  0  0  0  0  0  0  0  0  0
   -9.1711  -28.0775  -36.3525 H   0  0  0  0  0  0  0  0  0  0  0  0
   -3.6183  -31.4811  -36.2214 H   0  0  0  0  0  0  0  0  0  0  0  0
   -4.9606  -32.5604  -35.8024 H   0  0  0  0  0  0  0  0  0  0  0  0
   -8.6130  -29.1257  -33.5260 H   0  0  0  0  0  0  0  0  0  0  0  0
   -9.1198  -30.1132  -34.9080 H   0  0  0  0  0  0  0  0  0  0  0  0
   -4.8575  -29.6491  -35.5680 H   0  0  0  0  0  0  0  0  0  0  0  0
   -6.6192  -28.5864  -35.1708 H   0  0  0  0  0  0  0  0  0  0  0  0
  1 21  1  0  0  0  0
  1 22  1  0  0  0  0
  1 23  2  0  0  0  0
  2  4  1  0  0  0  0
  3  5  1  0  0  0  0
  4  6  1  0  0  0  0
  5 19  1  0  0  0  0
  6  7  1  0  0  0  0
  7  8  1  0  0  0  0
  8  9  1  0  0  0  0
  9 10  1  0  0  0  0
 10 11  1  0  0  0  0
 11 12  1  0  0  0  0
 12 13  1  0  0  0  0
 13 14  1  0  0  0  0
 14 15  1  0  0  0  0
 15 16  1  0  0  0  0
 16 17  1  0  0  0  0
 17 18  1  0  0  0  0
 18 20  1  0  0  0  0
 19 21  1  0  0  0  0
 20 22  1  0  0  0  0
  2 24  1  0  0  0  0
  2 25  1  0  0  0  0
  2 26  1  0  0  0  0
  3 27  1  0  0  0  0
  3 28  1  0  0  0  0
  3 29  1  0  0  0  0
  4 30  1  0  0  0  0
  4 31  1  0  0  0  0
  5 32  1  0  0  0  0
  5 33  1  0  0  0  0
  6 34  1  0  0  0  0
  6 35  1  0  0  0  0
  7 36  1  0  0  0  0
  7 37  1  0  0  0  0
  8 38  1  0  0  0  0
  8 39  1  0  0  0  0
  9 40  1  0  0  0  0
  9 41  1  0  0  0  0
 10 42  1  0  0  0  0
 10 43  1  0  0  0  0
 11 44  1  0  0  0  0
 11 45  1  0  0  0  0
 12 46  1  0  0  0  0
 12 47  1  0  0  0  0
 13 48  1  0  0  0  0
 13 49  1  0  0  0  0
 14 50  1  0  0  0  0
 14 51  1  0  0  0  0
 15 52  1  0  0  0  0
 15 53  1  0  0  0  0
 16 54  1  0  0  0  0
 16 55  1  0  0  0  0
 17 56  1  0  0  0  0
 17 57  1  0  0  0  0
 18 58  1  0  0  0  0
 18 59  1  0  0  0  0
 19 60  1  0  0  0  0
 19 61  1  0  0  0  0
 20 62  1  0  0  0  0
 20 63  1  0  0  0  0
 21 64  1  0  0  0  0
 22 65  1  0  0  0  0
M  END
> <Name>
IA_103.cdx

> <SourceTag>
IA_103

> <Gold.Version>
5.2

> <Gold.Id.Protein>
6HGV|6HGV_protein|mol2

> <Gold.Goldscore.Fitness>
72.5263

> <Gold.Goldscore.Internal.Vdw>
-6.1567

> <Gold.Goldscore.Internal.Torsion>
-3.1631

> <Gold.Goldscore.External.Vdw>
53.8079

> <Gold.Goldscore.Internal.HBond>
0.0000

> <Gold.Goldscore.External.HBond>
0.0000

> <Gold.Goldscore.Internal.Correction>
-7.8602

> <Gold.Goldscore.Internal.Vdw.Weighted>
-6.1567

> <Gold.Goldscore.Internal.Torsion.Weighted>
-3.1631

> <Gold.Goldscore.External.Vdw.Weighted>
73.9858

> <Gold.Goldscore.Internal.HBond.Weighted>
0.0000

> <Gold.Goldscore.External.HBond.Weighted>
0.0000

> <Gold.Goldscore.Internal.Correction.Weighted>
-7.8602

> <Gold.Protein.RotatedTorsions>
[ 3781 1176 1175 1172 ] final  -38.20 input   60.00 | X-H torsion
[ 3847 1247 1246 1244 ] final   79.31 input   60.00 | X-H torsion
[ 4507 1931 1930 1928 ] final   85.45 input   60.00 | X-H torsion
[ 3677 1070 1069 1066 ] final  -93.52 input   60.00 | X-H torsion
[ 3525  925  924  922 ] final   54.26 input   59.99 | X-H torsion
[ 4531 1957 1955 1953 ] final  105.09 input   60.00 | X-H torsion

> <Gold.Protein.ActiveResidues>
 PHE267  PRO268  MET310  ASP335  TRP336  MET339  TYR343  THR360  PRO361  ILE363
 PRO371  SER374  ILE375  ASN378  PHE381  TYR383  GLN384  PHE387  LEU408  LEU417
 MET419  LEU428  TYR466  MET469  ASN472  ASP496  VAL498  LEU499  MET503  HIS524
 TRP525

> <Gold.Protein.RotatedAtoms>
   -2.8909  -29.8176  -30.8711 H   0  0  0  0  0  0  0  0  0  0  0  0  # atno 3525 bound_to 925
  -11.8304  -23.7920  -31.3915 H   0  0  0  0  0  0  0  0  0  0  0  0  # atno 3677 bound_to 1070
  -10.5037  -36.8872  -34.0762 H   0  0  0  0  0  0  0  0  0  0  0  0  # atno 3781 bound_to 1176
  -14.5885  -28.7970  -37.4648 H   0  0  0  0  0  0  0  0  0  0  0  0  # atno 3847 bound_to 1247
  -12.4788  -24.3165  -38.9545 H   0  0  0  0  0  0  0  0  0  0  0  0  # atno 4507 bound_to 1931
   -2.6030  -33.9635  -36.7626 H   0  0  0  0  0  0  0  0  0  0  0  0  # atno 4531 bound_to 1957
   -9.2423  -36.3768  -33.1839 LP  0  0  0  0  0  0  0  0  0  0  0  0  # atno 5205 bound_to 1176
  -10.3614  -37.3690  -32.5284 LP  0  0  0  0  0  0  0  0  0  0  0  0  # atno 5206 bound_to 1176
  -16.0502  -28.1648  -37.1302 LP  0  0  0  0  0  0  0  0  0  0  0  0  # atno 5215 bound_to 1247
  -14.9300  -27.2702  -37.9121 LP  0  0  0  0  0  0  0  0  0  0  0  0  # atno 5216 bound_to 1247
  -13.5696  -25.3693  -39.5460 LP  0  0  0  0  0  0  0  0  0  0  0  0  # atno 5217 bound_to 1931
  -13.1505  -24.0502  -40.4126 LP  0  0  0  0  0  0  0  0  0  0  0  0  # atno 5218 bound_to 1931
  -11.2687  -22.3617  -30.8561 LP  0  0  0  0  0  0  0  0  0  0  0  0  # atno 5224 bound_to 1070
  -12.7557  -22.8743  -30.4169 LP  0  0  0  0  0  0  0  0  0  0  0  0  # atno 5225 bound_to 1070

$$$$
IA_103.cdx|SeH_inactivess_minimized|sdf|5|dock10
  -GOLD-   4172118323D 1   1.00000     0.00000

 65 64  0  0  0  0  0  0  0  0  1 V2000
  -17.2121  -24.4344  -37.4645 C   0  0  0  0  0  0  0  0  0  0  0  0
   -5.2397  -37.4447  -32.5210 C   0  0  0  0  0  0  0  0  0  0  0  0
  -20.9394  -23.1793  -37.5625 C   0  0  0  0  0  0  0  0  0  0  0  0
   -5.5275  -35.9551  -32.4179 C   0  0  0  0  0  0  0  0  0  0  0  0
  -20.4359  -23.5504  -38.9501 C   0  0  0  0  0  0  0  0  0  0  0  0
   -5.0959  -35.1632  -33.6543 C   0  0  0  0  0  0  0  0  0  0  0  0
   -5.4999  -33.6849  -33.6696 C   0  0  0  0  0  0  0  0  0  0  0  0
   -5.0200  -32.8761  -34.8786 C   0  0  0  0  0  0  0  0  0  0  0  0
   -5.3086  -31.3774  -34.7612 C   0  0  0  0  0  0  0  0  0  0  0  0
   -6.8130  -31.0999  -34.8099 C   0  0  0  0  0  0  0  0  0  0  0  0
   -7.1569  -29.6095  -34.8951 C   0  0  0  0  0  0  0  0  0  0  0  0
   -8.6322  -29.2757  -35.1373 C   0  0  0  0  0  0  0  0  0  0  0  0
   -8.9574  -27.7900  -34.9711 C   0  0  0  0  0  0  0  0  0  0  0  0
  -10.3563  -27.4668  -35.5010 C   0  0  0  0  0  0  0  0  0  0  0  0
  -10.6842  -25.9809  -35.3360 C   0  0  0  0  0  0  0  0  0  0  0  0
  -11.8360  -25.5633  -36.2527 C   0  0  0  0  0  0  0  0  0  0  0  0
  -13.2026  -26.0776  -35.7894 C   0  0  0  0  0  0  0  0  0  0  0  0
  -14.3661  -25.5706  -36.6481 C   0  0  0  0  0  0  0  0  0  0  0  0
  -18.9153  -23.5319  -39.0493 C   0  0  0  0  0  0  0  0  0  0  0  0
  -15.7174  -25.7404  -35.9597 C   0  0  0  0  0  0  0  0  0  0  0  0
  -18.3025  -24.6125  -38.3117 N   0  0  0  0  0  0  0  0  0  0  0  0
  -16.8181  -25.6389  -36.8772 N   0  0  0  0  0  0  0  0  0  0  0  0
  -16.6618  -23.3541  -37.2557 O   0  0  0  0  0  0  0  0  0  0  0  0
   -5.7439  -37.8829  -33.3880 H   0  0  0  0  0  0  0  0  0  0  0  0
   -5.5992  -37.9595  -31.6243 H   0  0  0  0  0  0  0  0  0  0  0  0
   -4.1671  -37.6412  -32.6083 H   0  0  0  0  0  0  0  0  0  0  0  0
  -20.5565  -23.8736  -36.8077 H   0  0  0  0  0  0  0  0  0  0  0  0
  -20.6034  -22.1718  -37.2969 H   0  0  0  0  0  0  0  0  0  0  0  0
  -22.0329  -23.1906  -37.5185 H   0  0  0  0  0  0  0  0  0  0  0  0
   -5.0498  -35.5512  -31.5185 H   0  0  0  0  0  0  0  0  0  0  0  0
   -6.6071  -35.8183  -32.2811 H   0  0  0  0  0  0  0  0  0  0  0  0
  -20.8465  -22.8370  -39.6741 H   0  0  0  0  0  0  0  0  0  0  0  0
  -20.8186  -24.5421  -39.2189 H   0  0  0  0  0  0  0  0  0  0  0  0
   -5.4979  -35.6595  -34.5456 H   0  0  0  0  0  0  0  0  0  0  0  0
   -4.0039  -35.2208  -33.7476 H   0  0  0  0  0  0  0  0  0  0  0  0
   -5.1158  -33.2149  -32.7553 H   0  0  0  0  0  0  0  0  0  0  0  0
   -6.5921  -33.6074  -33.6100 H   0  0  0  0  0  0  0  0  0  0  0  0
   -3.9475  -33.0370  -35.0371 H   0  0  0  0  0  0  0  0  0  0  0  0
   -5.5244  -33.2690  -35.7705 H   0  0  0  0  0  0  0  0  0  0  0  0
   -4.8130  -30.8456  -35.5794 H   0  0  0  0  0  0  0  0  0  0  0  0
   -4.8937  -30.9950  -33.8212 H   0  0  0  0  0  0  0  0  0  0  0  0
   -7.2630  -31.6372  -35.6527 H   0  0  0  0  0  0  0  0  0  0  0  0
   -7.2822  -31.5039  -33.9038 H   0  0  0  0  0  0  0  0  0  0  0  0
   -6.5638  -29.1549  -35.6985 H   0  0  0  0  0  0  0  0  0  0  0  0
   -6.8332  -29.1271  -33.9642 H   0  0  0  0  0  0  0  0  0  0  0  0
   -9.2661  -29.8720  -34.4709 H   0  0  0  0  0  0  0  0  0  0  0  0
   -8.8858  -29.5861  -36.1588 H   0  0  0  0  0  0  0  0  0  0  0  0
   -8.9036  -27.5095  -33.9133 H   0  0  0  0  0  0  0  0  0  0  0  0
   -8.2133  -27.1884  -35.5069 H   0  0  0  0  0  0  0  0  0  0  0  0
  -11.1001  -28.0685  -34.9643 H   0  0  0  0  0  0  0  0  0  0  0  0
  -10.4204  -27.7419  -36.5607 H   0  0  0  0  0  0  0  0  0  0  0  0
   -9.7951  -25.3815  -35.5655 H   0  0  0  0  0  0  0  0  0  0  0  0
  -10.9465  -25.7871  -34.2900 H   0  0  0  0  0  0  0  0  0  0  0  0
  -11.8804  -24.4678  -36.2935 H   0  0  0  0  0  0  0  0  0  0  0  0
  -11.6404  -25.9090  -37.2750 H   0  0  0  0  0  0  0  0  0  0  0  0
  -13.3479  -25.7551  -34.7514 H   0  0  0  0  0  0  0  0  0  0  0  0
  -13.1990  -27.1743  -35.7813 H   0  0  0  0  0  0  0  0  0  0  0  0
  -14.3955  -26.1270  -37.5913 H   0  0  0  0  0  0  0  0  0  0  0  0
  -14.2070  -24.5144  -36.8974 H   0  0  0  0  0  0  0  0  0  0  0  0
  -18.6067  -23.6423  -40.0937 H   0  0  0  0  0  0  0  0  0  0  0  0
  -18.5036  -22.5914  -38.6699 H   0  0  0  0  0  0  0  0  0  0  0  0
  -15.7789  -26.7306  -35.4971 H   0  0  0  0  0  0  0  0  0  0  0  0
  -15.8619  -24.9892  -35.1768 H   0  0  0  0  0  0  0  0  0  0  0  0
  -18.6857  -25.5469  -38.4161 H   0  0  0  0  0  0  0  0  0  0  0  0
  -17.3666  -26.4735  -37.0774 H   0  0  0  0  0  0  0  0  0  0  0  0
  1 21  1  0  0  0  0
  1 22  1  0  0  0  0
  1 23  2  0  0  0  0
  2  4  1  0  0  0  0
  3  5  1  0  0  0  0
  4  6  1  0  0  0  0
  5 19  1  0  0  0  0
  6  7  1  0  0  0  0
  7  8  1  0  0  0  0
  8  9  1  0  0  0  0
  9 10  1  0  0  0  0
 10 11  1  0  0  0  0
 11 12  1  0  0  0  0
 12 13  1  0  0  0  0
 13 14  1  0  0  0  0
 14 15  1  0  0  0  0
 15 16  1  0  0  0  0
 16 17  1  0  0  0  0
 17 18  1  0  0  0  0
 18 20  1  0  0  0  0
 19 21  1  0  0  0  0
 20 22  1  0  0  0  0
  2 24  1  0  0  0  0
  2 25  1  0  0  0  0
  2 26  1  0  0  0  0
  3 27  1  0  0  0  0
  3 28  1  0  0  0  0
  3 29  1  0  0  0  0
  4 30  1  0  0  0  0
  4 31  1  0  0  0  0
  5 32  1  0  0  0  0
  5 33  1  0  0  0  0
  6 34  1  0  0  0  0
  6 35  1  0  0  0  0
  7 36  1  0  0  0  0
  7 37  1  0  0  0  0
  8 38  1  0  0  0  0
  8 39  1  0  0  0  0
  9 40  1  0  0  0  0
  9 41  1  0  0  0  0
 10 42  1  0  0  0  0
 10 43  1  0  0  0  0
 11 44  1  0  0  0  0
 11 45  1  0  0  0  0
 12 46  1  0  0  0  0
 12 47  1  0  0  0  0
 13 48  1  0  0  0  0
 13 49  1  0  0  0  0
 14 50  1  0  0  0  0
 14 51  1  0  0  0  0
 15 52  1  0  0  0  0
 15 53  1  0  0  0  0
 16 54  1  0  0  0  0
 16 55  1  0  0  0  0
 17 56  1  0  0  0  0
 17 57  1  0  0  0  0
 18 58  1  0  0  0  0
 18 59  1  0  0  0  0
 19 60  1  0  0  0  0
 19 61  1  0  0  0  0
 20 62  1  0  0  0  0
 20 63  1  0  0  0  0
 21 64  1  0  0  0  0
 22 65  1  0  0  0  0
M  END
> <Name>
IA_103.cdx

> <SourceTag>
IA_103

> <Gold.Version>
5.2

> <Gold.Id.Protein>
6HGV|6HGV_protein|mol2

> <Gold.Goldscore.Fitness>
72.0214

> <Gold.Goldscore.Internal.Vdw>
-7.5472

> <Gold.Goldscore.Internal.Torsion>
-4.6663

> <Gold.Goldscore.External.Vdw>
55.5452

> <Gold.Goldscore.Internal.HBond>
0.0000

> <Gold.Goldscore.External.HBond>
0.0000

> <Gold.Goldscore.Internal.Correction>
-7.8602

> <Gold.Goldscore.Internal.Vdw.Weighted>
-7.5472

> <Gold.Goldscore.Internal.Torsion.Weighted>
-4.6663

> <Gold.Goldscore.External.Vdw.Weighted>
76.3747

> <Gold.Goldscore.Internal.HBond.Weighted>
0.0000

> <Gold.Goldscore.External.HBond.Weighted>
0.0000

> <Gold.Goldscore.Internal.Correction.Weighted>
-7.8602

> <Gold.Protein.RotatedTorsions>
[ 3781 1176 1175 1172 ] final -166.81 input   60.00 | X-H torsion
[ 3847 1247 1246 1244 ] final   87.58 input   60.00 | X-H torsion
[ 4507 1931 1930 1928 ] final  -72.25 input   60.00 | X-H torsion
[ 3677 1070 1069 1066 ] final  -91.29 input   60.00 | X-H torsion
[ 3525  925  924  922 ] final   34.13 input   59.99 | X-H torsion
[ 4531 1957 1955 1953 ] final  -36.12 input   60.00 | X-H torsion

> <Gold.Protein.ActiveResidues>
 PHE267  PRO268  MET310  ASP335  TRP336  MET339  TYR343  THR360  PRO361  ILE363
 PRO371  SER374  ILE375  ASN378  PHE381  TYR383  GLN384  PHE387  LEU408  LEU417
 MET419  LEU428  TYR466  MET469  ASN472  ASP496  VAL498  LEU499  MET503  HIS524
 TRP525

> <Gold.Protein.RotatedAtoms>
   -3.1877  -29.6937  -30.8109 H   0  0  0  0  0  0  0  0  0  0  0  0  # atno 3525 bound_to 925
  -11.8636  -23.8029  -31.3814 H   0  0  0  0  0  0  0  0  0  0  0  0  # atno 3677 bound_to 1070
   -9.2428  -36.4293  -33.0530 H   0  0  0  0  0  0  0  0  0  0  0  0  # atno 3781 bound_to 1176
  -14.5025  -28.7159  -37.5296 H   0  0  0  0  0  0  0  0  0  0  0  0  # atno 3847 bound_to 1247
  -13.6961  -25.1086  -40.0795 H   0  0  0  0  0  0  0  0  0  0  0  0  # atno 4507 bound_to 1931
   -2.3602  -32.2141  -36.7785 H   0  0  0  0  0  0  0  0  0  0  0  0  # atno 4531 bound_to 1957
  -10.4671  -37.4074  -32.6142 LP  0  0  0  0  0  0  0  0  0  0  0  0  # atno 5205 bound_to 1176
  -10.4064  -36.7996  -34.1287 LP  0  0  0  0  0  0  0  0  0  0  0  0  # atno 5206 bound_to 1176
  -16.0125  -28.2910  -37.0968 LP  0  0  0  0  0  0  0  0  0  0  0  0  # atno 5215 bound_to 1247
  -15.0543  -27.2258  -37.8803 LP  0  0  0  0  0  0  0  0  0  0  0  0  # atno 5216 bound_to 1247
  -12.7468  -23.7875  -40.0395 LP  0  0  0  0  0  0  0  0  0  0  0  0  # atno 5217 bound_to 1931
  -12.7474  -24.8343  -38.7861 LP  0  0  0  0  0  0  0  0  0  0  0  0  # atno 5218 bound_to 1931
  -11.2485  -22.3828  -30.8780 LP  0  0  0  0  0  0  0  0  0  0  0  0  # atno 5224 bound_to 1070
  -12.7425  -22.8422  -30.4052 LP  0  0  0  0  0  0  0  0  0  0  0  0  # atno 5225 bound_to 1070

$$$$
IA_103.cdx|SeH_inactivess_minimized|sdf|5|dock4
  -GOLD-   4172118293D 1   1.00000     0.00000

 65 64  0  0  0  0  0  0  0  0  1 V2000
  -21.1021  -25.1817  -36.0335 C   0  0  0  0  0  0  0  0  0  0  0  0
   -3.5894  -33.3288  -32.2869 C   0  0  0  0  0  0  0  0  0  0  0  0
  -24.1815  -22.9226  -35.2682 C   0  0  0  0  0  0  0  0  0  0  0  0
   -4.6045  -33.0391  -33.3815 C   0  0  0  0  0  0  0  0  0  0  0  0
  -24.3794  -24.3340  -34.7338 C   0  0  0  0  0  0  0  0  0  0  0  0
   -4.1128  -32.0247  -34.4166 C   0  0  0  0  0  0  0  0  0  0  0  0
   -5.1938  -31.4230  -35.3212 C   0  0  0  0  0  0  0  0  0  0  0  0
   -6.0915  -30.3650  -34.6726 C   0  0  0  0  0  0  0  0  0  0  0  0
   -7.2875  -29.9668  -35.5410 C   0  0  0  0  0  0  0  0  0  0  0  0
   -8.1458  -28.9074  -34.8454 C   0  0  0  0  0  0  0  0  0  0  0  0
   -9.2864  -28.3753  -35.7188 C   0  0  0  0  0  0  0  0  0  0  0  0
  -10.1182  -27.2396  -35.1147 C   0  0  0  0  0  0  0  0  0  0  0  0
  -11.1924  -26.6995  -36.0607 C   0  0  0  0  0  0  0  0  0  0  0  0
  -12.3751  -26.1192  -35.2818 C   0  0  0  0  0  0  0  0  0  0  0  0
  -13.6124  -25.9790  -36.1718 C   0  0  0  0  0  0  0  0  0  0  0  0
  -14.8651  -25.7015  -35.3381 C   0  0  0  0  0  0  0  0  0  0  0  0
  -16.1390  -25.5627  -36.1775 C   0  0  0  0  0  0  0  0  0  0  0  0
  -17.4153  -25.4684  -35.3346 C   0  0  0  0  0  0  0  0  0  0  0  0
  -23.5240  -25.3645  -35.4609 C   0  0  0  0  0  0  0  0  0  0  0  0
  -18.6202  -25.0060  -36.1490 C   0  0  0  0  0  0  0  0  0  0  0  0
  -22.1285  -25.2763  -35.0976 N   0  0  0  0  0  0  0  0  0  0  0  0
  -19.8514  -25.1099  -35.4160 N   0  0  0  0  0  0  0  0  0  0  0  0
  -21.2706  -25.1628  -37.2521 O   0  0  0  0  0  0  0  0  0  0  0  0
   -3.3145  -32.4132  -31.7540 H   0  0  0  0  0  0  0  0  0  0  0  0
   -2.6791  -33.7536  -32.7220 H   0  0  0  0  0  0  0  0  0  0  0  0
   -3.9768  -34.0492  -31.5606 H   0  0  0  0  0  0  0  0  0  0  0  0
  -24.7503  -22.1966  -34.6785 H   0  0  0  0  0  0  0  0  0  0  0  0
  -23.1237  -22.6454  -35.2171 H   0  0  0  0  0  0  0  0  0  0  0  0
  -24.4990  -22.8432  -36.3126 H   0  0  0  0  0  0  0  0  0  0  0  0
   -5.5435  -32.7008  -32.9299 H   0  0  0  0  0  0  0  0  0  0  0  0
   -4.8330  -33.9777  -33.9009 H   0  0  0  0  0  0  0  0  0  0  0  0
  -25.4350  -24.6067  -34.8473 H   0  0  0  0  0  0  0  0  0  0  0  0
  -24.1543  -24.3477  -33.6608 H   0  0  0  0  0  0  0  0  0  0  0  0
   -3.3441  -32.5017  -35.0362 H   0  0  0  0  0  0  0  0  0  0  0  0
   -3.6072  -31.2028  -33.8938 H   0  0  0  0  0  0  0  0  0  0  0  0
   -5.8239  -32.2410  -35.6933 H   0  0  0  0  0  0  0  0  0  0  0  0
   -4.7207  -30.9827  -36.2071 H   0  0  0  0  0  0  0  0  0  0  0  0
   -6.4423  -30.7170  -33.6956 H   0  0  0  0  0  0  0  0  0  0  0  0
   -5.4794  -29.4756  -34.4766 H   0  0  0  0  0  0  0  0  0  0  0  0
   -7.8975  -30.8513  -35.7490 H   0  0  0  0  0  0  0  0  0  0  0  0
   -6.9314  -29.5790  -36.5027 H   0  0  0  0  0  0  0  0  0  0  0  0
   -8.5477  -29.3111  -33.9089 H   0  0  0  0  0  0  0  0  0  0  0  0
   -7.5102  -28.0579  -34.5646 H   0  0  0  0  0  0  0  0  0  0  0  0
   -9.9613  -29.2050  -35.9635 H   0  0  0  0  0  0  0  0  0  0  0  0
   -8.8613  -28.0345  -36.6712 H   0  0  0  0  0  0  0  0  0  0  0  0
   -9.4611  -26.4232  -34.7932 H   0  0  0  0  0  0  0  0  0  0  0  0
  -10.5999  -27.6202  -34.2052 H   0  0  0  0  0  0  0  0  0  0  0  0
  -10.7700  -25.9176  -36.7017 H   0  0  0  0  0  0  0  0  0  0  0  0
  -11.5438  -27.5051  -36.7165 H   0  0  0  0  0  0  0  0  0  0  0  0
  -12.1014  -25.1374  -34.8765 H   0  0  0  0  0  0  0  0  0  0  0  0
  -12.6074  -26.7685  -34.4289 H   0  0  0  0  0  0  0  0  0  0  0  0
  -13.7527  -26.8988  -36.7522 H   0  0  0  0  0  0  0  0  0  0  0  0
  -13.4478  -25.1648  -36.8863 H   0  0  0  0  0  0  0  0  0  0  0  0
  -15.0123  -26.5263  -34.6298 H   0  0  0  0  0  0  0  0  0  0  0  0
  -14.7187  -24.7943  -34.7393 H   0  0  0  0  0  0  0  0  0  0  0  0
  -16.2020  -26.4356  -36.8382 H   0  0  0  0  0  0  0  0  0  0  0  0
  -16.0577  -24.6817  -36.8258 H   0  0  0  0  0  0  0  0  0  0  0  0
  -17.2643  -24.7526  -34.5192 H   0  0  0  0  0  0  0  0  0  0  0  0
  -17.6281  -26.4427  -34.8781 H   0  0  0  0  0  0  0  0  0  0  0  0
  -23.8577  -26.3753  -35.2058 H   0  0  0  0  0  0  0  0  0  0  0  0
  -23.5958  -25.2458  -36.5466 H   0  0  0  0  0  0  0  0  0  0  0  0
  -18.5022  -23.9535  -36.4255 H   0  0  0  0  0  0  0  0  0  0  0  0
  -18.7262  -25.5899  -37.0687 H   0  0  0  0  0  0  0  0  0  0  0  0
  -21.8845  -25.2836  -34.1121 H   0  0  0  0  0  0  0  0  0  0  0  0
  -19.8182  -25.0860  -34.3982 H   0  0  0  0  0  0  0  0  0  0  0  0
  1 21  1  0  0  0  0
  1 22  1  0  0  0  0
  1 23  2  0  0  0  0
  2  4  1  0  0  0  0
  3  5  1  0  0  0  0
  4  6  1  0  0  0  0
  5 19  1  0  0  0  0
  6  7  1  0  0  0  0
  7  8  1  0  0  0  0
  8  9  1  0  0  0  0
  9 10  1  0  0  0  0
 10 11  1  0  0  0  0
 11 12  1  0  0  0  0
 12 13  1  0  0  0  0
 13 14  1  0  0  0  0
 14 15  1  0  0  0  0
 15 16  1  0  0  0  0
 16 17  1  0  0  0  0
 17 18  1  0  0  0  0
 18 20  1  0  0  0  0
 19 21  1  0  0  0  0
 20 22  1  0  0  0  0
  2 24  1  0  0  0  0
  2 25  1  0  0  0  0
  2 26  1  0  0  0  0
  3 27  1  0  0  0  0
  3 28  1  0  0  0  0
  3 29  1  0  0  0  0
  4 30  1  0  0  0  0
  4 31  1  0  0  0  0
  5 32  1  0  0  0  0
  5 33  1  0  0  0  0
  6 34  1  0  0  0  0
  6 35  1  0  0  0  0
  7 36  1  0  0  0  0
  7 37  1  0  0  0  0
  8 38  1  0  0  0  0
  8 39  1  0  0  0  0
  9 40  1  0  0  0  0
  9 41  1  0  0  0  0
 10 42  1  0  0  0  0
 10 43  1  0  0  0  0
 11 44  1  0  0  0  0
 11 45  1  0  0  0  0
 12 46  1  0  0  0  0
 12 47  1  0  0  0  0
 13 48  1  0  0  0  0
 13 49  1  0  0  0  0
 14 50  1  0  0  0  0
 14 51  1  0  0  0  0
 15 52  1  0  0  0  0
 15 53  1  0  0  0  0
 16 54  1  0  0  0  0
 16 55  1  0  0  0  0
 17 56  1  0  0  0  0
 17 57  1  0  0  0  0
 18 58  1  0  0  0  0
 18 59  1  0  0  0  0
 19 60  1  0  0  0  0
 19 61  1  0  0  0  0
 20 62  1  0  0  0  0
 20 63  1  0  0  0  0
 21 64  1  0  0  0  0
 22 65  1  0  0  0  0
M  END
> <Name>
IA_103.cdx

> <SourceTag>
IA_103

> <Gold.Version>
5.2

> <Gold.Id.Protein>
6HGV|6HGV_protein|mol2

> <Gold.Goldscore.Fitness>
71.8700

> <Gold.Goldscore.Internal.Vdw>
-8.5745

> <Gold.Goldscore.Internal.Torsion>
-5.7288

> <Gold.Goldscore.External.Vdw>
54.2951

> <Gold.Goldscore.Internal.HBond>
0.0000

> <Gold.Goldscore.External.HBond>
3.6573

> <Gold.Goldscore.Internal.Correction>
-7.8602

> <Gold.Goldscore.Hbonds>
donor molecule, donor type, donor heavy atom, donor atom, acceptor molecule, acceptor atom, score
      L1  H    21    64       P1  2185  0.04
      L1  H    22    65       P1  2185  0.57

> <Gold.Goldscore.Internal.Vdw.Weighted>
-8.5745

> <Gold.Goldscore.Internal.Torsion.Weighted>
-5.7288

> <Gold.Goldscore.External.Vdw.Weighted>
74.6558

> <Gold.Goldscore.Internal.HBond.Weighted>
0.0000

> <Gold.Goldscore.External.HBond.Weighted>
3.6573

> <Gold.Goldscore.Internal.Correction.Weighted>
-7.8602

> <Gold.Protein.RotatedTorsions>
[ 3781 1176 1175 1172 ] final  128.02 input   60.00 | X-H torsion
[ 3847 1247 1246 1244 ] final   29.13 input   60.00 | X-H torsion
[ 4507 1931 1930 1928 ] final  -25.66 input   60.00 | X-H torsion
[ 3677 1070 1069 1066 ] final  -59.61 input   60.00 | X-H torsion
[ 3525  925  924  922 ] final   31.62 input   59.99 | X-H torsion
[ 4531 1957 1955 1953 ] final  114.82 input   60.00 | X-H torsion

> <Gold.Protein.ActiveResidues>
 PHE267  PRO268  MET310  ASP335  TRP336  MET339  TYR343  THR360  PRO361  ILE363
 PRO371  SER374  ILE375  ASN378  PHE381  TYR383  GLN384  PHE387  LEU408  LEU417
 MET419  LEU428  TYR466  MET469  ASN472  ASP496  VAL498  LEU499  MET503  HIS524
 TRP525

> <Gold.Protein.RotatedAtoms>
   -3.2230  -29.6797  -30.7957 H   0  0  0  0  0  0  0  0  0  0  0  0  # atno 3525 bound_to 925
  -12.3265  -23.8233  -31.1655 H   0  0  0  0  0  0  0  0  0  0  0  0  # atno 3677 bound_to 1070
   -9.7346  -37.0064  -32.3881 H   0  0  0  0  0  0  0  0  0  0  0  0  # atno 3781 bound_to 1176
  -15.2977  -28.9329  -37.1344 H   0  0  0  0  0  0  0  0  0  0  0  0  # atno 3847 bound_to 1247
  -13.4986  -25.3788  -39.4190 H   0  0  0  0  0  0  0  0  0  0  0  0  # atno 4507 bound_to 1931
   -2.4590  -34.0240  -36.7910 H   0  0  0  0  0  0  0  0  0  0  0  0  # atno 4531 bound_to 1957
  -10.8297  -37.2964  -33.5563 LP  0  0  0  0  0  0  0  0  0  0  0  0  # atno 5205 bound_to 1176
   -9.5485  -36.3294  -33.8561 LP  0  0  0  0  0  0  0  0  0  0  0  0  # atno 5206 bound_to 1176
  -15.8937  -27.4549  -37.4632 LP  0  0  0  0  0  0  0  0  0  0  0  0  # atno 5215 bound_to 1247
  -14.3723  -27.8433  -37.9118 LP  0  0  0  0  0  0  0  0  0  0  0  0  # atno 5216 bound_to 1247
  -13.2470  -24.1507  -40.4565 LP  0  0  0  0  0  0  0  0  0  0  0  0  # atno 5217 bound_to 1931
  -12.4461  -24.1989  -39.0342 LP  0  0  0  0  0  0  0  0  0  0  0  0  # atno 5218 bound_to 1931
  -11.0869  -22.7690  -31.1774 LP  0  0  0  0  0  0  0  0  0  0  0  0  # atno 5224 bound_to 1070
  -12.4380  -22.4354  -30.3232 LP  0  0  0  0  0  0  0  0  0  0  0  0  # atno 5225 bound_to 1070

$$$$
IA_103.cdx|SeH_inactivess_minimized|sdf|5|dock5
  -GOLD-   4172118293D 1   1.00000     0.00000

 65 64  0  0  0  0  0  0  0  0  1 V2000
   -6.0240  -30.3930  -34.6325 C   0  0  0  0  0  0  0  0  0  0  0  0
  -24.8869  -21.8213  -39.7599 C   0  0  0  0  0  0  0  0  0  0  0  0
   -4.2774  -32.3575  -32.5541 C   0  0  0  0  0  0  0  0  0  0  0  0
  -24.0467  -22.5347  -38.7123 C   0  0  0  0  0  0  0  0  0  0  0  0
   -3.8925  -32.9333  -33.9095 C   0  0  0  0  0  0  0  0  0  0  0  0
  -22.5771  -22.6894  -39.1106 C   0  0  0  0  0  0  0  0  0  0  0  0
  -21.6862  -23.4096  -38.0926 C   0  0  0  0  0  0  0  0  0  0  0  0
  -20.2015  -23.5044  -38.4568 C   0  0  0  0  0  0  0  0  0  0  0  0
  -19.3975  -24.3948  -37.5060 C   0  0  0  0  0  0  0  0  0  0  0  0
  -17.9414  -24.5153  -37.9620 C   0  0  0  0  0  0  0  0  0  0  0  0
  -16.9951  -25.0053  -36.8615 C   0  0  0  0  0  0  0  0  0  0  0  0
  -15.5084  -25.0509  -37.2284 C   0  0  0  0  0  0  0  0  0  0  0  0
  -14.6313  -25.6821  -36.1454 C   0  0  0  0  0  0  0  0  0  0  0  0
  -13.1828  -25.8233  -36.6187 C   0  0  0  0  0  0  0  0  0  0  0  0
  -12.2803  -26.3473  -35.4992 C   0  0  0  0  0  0  0  0  0  0  0  0
  -11.0051  -26.9761  -36.0651 C   0  0  0  0  0  0  0  0  0  0  0  0
  -10.0767  -27.5479  -34.9891 C   0  0  0  0  0  0  0  0  0  0  0  0
   -9.1741  -28.6753  -35.5014 C   0  0  0  0  0  0  0  0  0  0  0  0
   -4.1216  -31.9522  -35.0528 C   0  0  0  0  0  0  0  0  0  0  0  0
   -8.1710  -29.1434  -34.4510 C   0  0  0  0  0  0  0  0  0  0  0  0
   -5.5081  -31.5660  -35.1771 N   0  0  0  0  0  0  0  0  0  0  0  0
   -7.3889  -30.2625  -34.8982 N   0  0  0  0  0  0  0  0  0  0  0  0
   -5.3644  -29.5716  -33.9971 O   0  0  0  0  0  0  0  0  0  0  0  0
  -24.7628  -22.2836  -40.7442 H   0  0  0  0  0  0  0  0  0  0  0  0
  -24.5803  -20.7733  -39.8370 H   0  0  0  0  0  0  0  0  0  0  0  0
  -25.9497  -21.8374  -39.5012 H   0  0  0  0  0  0  0  0  0  0  0  0
   -5.3320  -32.0642  -32.5378 H   0  0  0  0  0  0  0  0  0  0  0  0
   -4.1219  -33.1048  -31.7695 H   0  0  0  0  0  0  0  0  0  0  0  0
   -3.6715  -31.4803  -32.3066 H   0  0  0  0  0  0  0  0  0  0  0  0
  -24.4887  -23.5127  -38.4921 H   0  0  0  0  0  0  0  0  0  0  0  0
  -24.0918  -21.9593  -37.7797 H   0  0  0  0  0  0  0  0  0  0  0  0
   -4.4911  -33.8337  -34.0903 H   0  0  0  0  0  0  0  0  0  0  0  0
   -2.8409  -33.2426  -33.8839 H   0  0  0  0  0  0  0  0  0  0  0  0
  -22.1639  -21.6948  -39.3163 H   0  0  0  0  0  0  0  0  0  0  0  0
  -22.5239  -23.2370  -40.0602 H   0  0  0  0  0  0  0  0  0  0  0  0
  -22.0801  -24.4238  -37.9490 H   0  0  0  0  0  0  0  0  0  0  0  0
  -21.7749  -22.9133  -37.1187 H   0  0  0  0  0  0  0  0  0  0  0  0
  -20.0889  -23.8630  -39.4864 H   0  0  0  0  0  0  0  0  0  0  0  0
  -19.7827  -22.4903  -38.4376 H   0  0  0  0  0  0  0  0  0  0  0  0
  -19.8511  -25.3901  -37.4677 H   0  0  0  0  0  0  0  0  0  0  0  0
  -19.4329  -23.9778  -36.4927 H   0  0  0  0  0  0  0  0  0  0  0  0
  -17.8784  -25.1778  -38.8331 H   0  0  0  0  0  0  0  0  0  0  0  0
  -17.5881  -23.5324  -38.2989 H   0  0  0  0  0  0  0  0  0  0  0  0
  -17.3048  -26.0109  -36.5505 H   0  0  0  0  0  0  0  0  0  0  0  0
  -17.1232  -24.3596  -35.9837 H   0  0  0  0  0  0  0  0  0  0  0  0
  -15.1476  -24.0416  -37.4579 H   0  0  0  0  0  0  0  0  0  0  0  0
  -15.4064  -25.6299  -38.1549 H   0  0  0  0  0  0  0  0  0  0  0  0
  -14.6515  -25.0665  -35.2392 H   0  0  0  0  0  0  0  0  0  0  0  0
  -15.0288  -26.6688  -35.8789 H   0  0  0  0  0  0  0  0  0  0  0  0
  -12.8127  -24.8498  -36.9632 H   0  0  0  0  0  0  0  0  0  0  0  0
  -13.1412  -26.5073  -37.4751 H   0  0  0  0  0  0  0  0  0  0  0  0
  -12.8257  -27.0913  -34.9063 H   0  0  0  0  0  0  0  0  0  0  0  0
  -12.0258  -25.5192  -34.8285 H   0  0  0  0  0  0  0  0  0  0  0  0
  -11.2809  -27.7916  -36.7452 H   0  0  0  0  0  0  0  0  0  0  0  0
  -10.4612  -26.2361  -36.6646 H   0  0  0  0  0  0  0  0  0  0  0  0
  -10.7028  -27.9249  -34.1716 H   0  0  0  0  0  0  0  0  0  0  0  0
   -9.4611  -26.7429  -34.5694 H   0  0  0  0  0  0  0  0  0  0  0  0
   -8.6112  -28.3268  -36.3741 H   0  0  0  0  0  0  0  0  0  0  0  0
   -9.7910  -29.5214  -35.8279 H   0  0  0  0  0  0  0  0  0  0  0  0
   -3.5485  -31.0357  -34.8803 H   0  0  0  0  0  0  0  0  0  0  0  0
   -3.8048  -32.3769  -36.0105 H   0  0  0  0  0  0  0  0  0  0  0  0
   -7.4685  -28.3363  -34.2199 H   0  0  0  0  0  0  0  0  0  0  0  0
   -8.6734  -29.4337  -33.5229 H   0  0  0  0  0  0  0  0  0  0  0  0
   -6.1367  -32.1796  -35.6862 H   0  0  0  0  0  0  0  0  0  0  0  0
   -7.8371  -30.9738  -35.4732 H   0  0  0  0  0  0  0  0  0  0  0  0
  1 21  1  0  0  0  0
  1 22  1  0  0  0  0
  1 23  2  0  0  0  0
  2  4  1  0  0  0  0
  3  5  1  0  0  0  0
  4  6  1  0  0  0  0
  5 19  1  0  0  0  0
  6  7  1  0  0  0  0
  7  8  1  0  0  0  0
  8  9  1  0  0  0  0
  9 10  1  0  0  0  0
 10 11  1  0  0  0  0
 11 12  1  0  0  0  0
 12 13  1  0  0  0  0
 13 14  1  0  0  0  0
 14 15  1  0  0  0  0
 15 16  1  0  0  0  0
 16 17  1  0  0  0  0
 17 18  1  0  0  0  0
 18 20  1  0  0  0  0
 19 21  1  0  0  0  0
 20 22  1  0  0  0  0
  2 24  1  0  0  0  0
  2 25  1  0  0  0  0
  2 26  1  0  0  0  0
  3 27  1  0  0  0  0
  3 28  1  0  0  0  0
  3 29  1  0  0  0  0
  4 30  1  0  0  0  0
  4 31  1  0  0  0  0
  5 32  1  0  0  0  0
  5 33  1  0  0  0  0
  6 34  1  0  0  0  0
  6 35  1  0  0  0  0
  7 36  1  0  0  0  0
  7 37  1  0  0  0  0
  8 38  1  0  0  0  0
  8 39  1  0  0  0  0
  9 40  1  0  0  0  0
  9 41  1  0  0  0  0
 10 42  1  0  0  0  0
 10 43  1  0  0  0  0
 11 44  1  0  0  0  0
 11 45  1  0  0  0  0
 12 46  1  0  0  0  0
 12 47  1  0  0  0  0
 13 48  1  0  0  0  0
 13 49  1  0  0  0  0
 14 50  1  0  0  0  0
 14 51  1  0  0  0  0
 15 52  1  0  0  0  0
 15 53  1  0  0  0  0
 16 54  1  0  0  0  0
 16 55  1  0  0  0  0
 17 56  1  0  0  0  0
 17 57  1  0  0  0  0
 18 58  1  0  0  0  0
 18 59  1  0  0  0  0
 19 60  1  0  0  0  0
 19 61  1  0  0  0  0
 20 62  1  0  0  0  0
 20 63  1  0  0  0  0
 21 64  1  0  0  0  0
 22 65  1  0  0  0  0
M  END
> <Name>
IA_103.cdx

> <SourceTag>
IA_103

> <Gold.Version>
5.2

> <Gold.Id.Protein>
6HGV|6HGV_protein|mol2

> <Gold.Goldscore.Fitness>
71.2514

> <Gold.Goldscore.Internal.Vdw>
-6.6898

> <Gold.Goldscore.Internal.Torsion>
-4.5610

> <Gold.Goldscore.External.Vdw>
54.2851

> <Gold.Goldscore.Internal.HBond>
0.0000

> <Gold.Goldscore.External.HBond>
0.0000

> <Gold.Goldscore.Internal.Correction>
-7.8602

> <Gold.Goldscore.Internal.Vdw.Weighted>
-6.6898

> <Gold.Goldscore.Internal.Torsion.Weighted>
-4.5610

> <Gold.Goldscore.External.Vdw.Weighted>
74.6420

> <Gold.Goldscore.Internal.HBond.Weighted>
0.0000

> <Gold.Goldscore.External.HBond.Weighted>
0.0000

> <Gold.Goldscore.Internal.Correction.Weighted>
-7.8602

> <Gold.Protein.RotatedTorsions>
[ 3781 1176 1175 1172 ] final    2.58 input   60.00 | X-H torsion
[ 3847 1247 1246 1244 ] final   76.53 input   60.00 | X-H torsion
[ 4507 1931 1930 1928 ] final  -57.35 input   60.00 | X-H torsion
[ 3677 1070 1069 1066 ] final  -39.37 input   60.00 | X-H torsion
[ 3525  925  924  922 ] final   29.38 input   59.99 | X-H torsion
[ 4531 1957 1955 1953 ] final  126.44 input   60.00 | X-H torsion

> <Gold.Protein.ActiveResidues>
 PHE267  PRO268  MET310  ASP335  TRP336  MET339  TYR343  THR360  PRO361  ILE363
 PRO371  SER374  ILE375  ASN378  PHE381  TYR383  GLN384  PHE387  LEU408  LEU417
 MET419  LEU428  TYR466  MET469  ASN472  ASP496  VAL498  LEU499  MET503  HIS524
 TRP525

> <Gold.Protein.RotatedAtoms>
   -3.2542  -29.6675  -30.7806 H   0  0  0  0  0  0  0  0  0  0  0  0  # atno 3525 bound_to 925
  -12.5713  -23.7070  -30.9789 H   0  0  0  0  0  0  0  0  0  0  0  0  # atno 3677 bound_to 1070
  -10.8093  -37.2568  -33.6338 H   0  0  0  0  0  0  0  0  0  0  0  0  # atno 3781 bound_to 1176
  -14.6204  -28.8211  -37.4430 H   0  0  0  0  0  0  0  0  0  0  0  0  # atno 3847 bound_to 1247
  -13.6749  -25.2451  -39.8798 H   0  0  0  0  0  0  0  0  0  0  0  0  # atno 4507 bound_to 1931
   -2.2768  -34.0625  -36.8263 H   0  0  0  0  0  0  0  0  0  0  0  0  # atno 4531 bound_to 1957
   -9.4907  -36.3159  -33.7891 LP  0  0  0  0  0  0  0  0  0  0  0  0  # atno 5205 bound_to 1176
   -9.8053  -37.0577  -32.3688 LP  0  0  0  0  0  0  0  0  0  0  0  0  # atno 5206 bound_to 1176
  -16.0589  -28.1218  -37.1433 LP  0  0  0  0  0  0  0  0  0  0  0  0  # atno 5215 bound_to 1247
  -14.8891  -27.2890  -37.9210 LP  0  0  0  0  0  0  0  0  0  0  0  0  # atno 5216 bound_to 1247
  -12.8993  -23.8552  -40.2182 LP  0  0  0  0  0  0  0  0  0  0  0  0  # atno 5217 bound_to 1931
  -12.6163  -24.6292  -38.8085 LP  0  0  0  0  0  0  0  0  0  0  0  0  # atno 5218 bound_to 1931
  -11.1187  -23.0621  -31.3287 LP  0  0  0  0  0  0  0  0  0  0  0  0  # atno 5224 bound_to 1070
  -12.1597  -22.2594  -30.3598 LP  0  0  0  0  0  0  0  0  0  0  0  0  # atno 5225 bound_to 1070

$$$$
IA_103.cdx|SeH_inactivess_minimized|sdf|5|dock1
  -GOLD-   4172118283D 1   1.00000     0.00000

 65 64  0  0  0  0  0  0  0  0  1 V2000
   -6.8403  -30.2156  -34.9346 C   0  0  0  0  0  0  0  0  0  0  0  0
  -24.5751  -24.0117  -34.7287 C   0  0  0  0  0  0  0  0  0  0  0  0
   -4.3837  -33.1459  -33.7919 C   0  0  0  0  0  0  0  0  0  0  0  0
  -24.0074  -24.3218  -36.1050 C   0  0  0  0  0  0  0  0  0  0  0  0
   -3.9448  -31.9268  -34.5905 C   0  0  0  0  0  0  0  0  0  0  0  0
  -22.5465  -23.8976  -36.2722 C   0  0  0  0  0  0  0  0  0  0  0  0
  -21.9075  -24.2372  -37.6231 C   0  0  0  0  0  0  0  0  0  0  0  0
  -20.4323  -23.8550  -37.7767 C   0  0  0  0  0  0  0  0  0  0  0  0
  -19.4791  -24.8018  -37.0431 C   0  0  0  0  0  0  0  0  0  0  0  0
  -18.0186  -24.4535  -37.3403 C   0  0  0  0  0  0  0  0  0  0  0  0
  -17.0165  -25.3981  -36.6692 C   0  0  0  0  0  0  0  0  0  0  0  0
  -15.5376  -25.1152  -36.9513 C   0  0  0  0  0  0  0  0  0  0  0  0
  -14.5826  -25.9141  -36.0622 C   0  0  0  0  0  0  0  0  0  0  0  0
  -13.1342  -25.7690  -36.5348 C   0  0  0  0  0  0  0  0  0  0  0  0
  -12.1656  -26.4783  -35.5855 C   0  0  0  0  0  0  0  0  0  0  0  0
  -10.7233  -26.3713  -36.0853 C   0  0  0  0  0  0  0  0  0  0  0  0
   -9.7045  -27.0425  -35.1588 C   0  0  0  0  0  0  0  0  0  0  0  0
   -9.6533  -28.5662  -35.3137 C   0  0  0  0  0  0  0  0  0  0  0  0
   -4.9081  -31.5851  -35.7208 C   0  0  0  0  0  0  0  0  0  0  0  0
   -8.9892  -29.2523  -34.1233 C   0  0  0  0  0  0  0  0  0  0  0  0
   -6.2698  -31.4434  -35.2594 N   0  0  0  0  0  0  0  0  0  0  0  0
   -8.1653  -30.3611  -34.5175 N   0  0  0  0  0  0  0  0  0  0  0  0
   -6.2552  -29.1356  -35.0052 O   0  0  0  0  0  0  0  0  0  0  0  0
  -23.9969  -24.5097  -33.9442 H   0  0  0  0  0  0  0  0  0  0  0  0
  -25.6097  -24.3629  -34.6615 H   0  0  0  0  0  0  0  0  0  0  0  0
  -24.5766  -22.9363  -34.5281 H   0  0  0  0  0  0  0  0  0  0  0  0
   -3.6343  -33.4126  -33.0398 H   0  0  0  0  0  0  0  0  0  0  0  0
   -5.3246  -32.9372  -33.2727 H   0  0  0  0  0  0  0  0  0  0  0  0
   -4.5440  -34.0120  -34.4414 H   0  0  0  0  0  0  0  0  0  0  0  0
  -24.6324  -23.8532  -36.8731 H   0  0  0  0  0  0  0  0  0  0  0  0
  -24.0729  -25.4038  -36.2723 H   0  0  0  0  0  0  0  0  0  0  0  0
   -2.9547  -32.1255  -35.0172 H   0  0  0  0  0  0  0  0  0  0  0  0
   -3.8403  -31.0709  -33.9132 H   0  0  0  0  0  0  0  0  0  0  0  0
  -21.9564  -24.3504  -35.4665 H   0  0  0  0  0  0  0  0  0  0  0  0
  -22.4739  -22.8129  -36.1219 H   0  0  0  0  0  0  0  0  0  0  0  0
  -22.4856  -23.7378  -38.4111 H   0  0  0  0  0  0  0  0  0  0  0  0
  -22.0104  -25.3125  -37.8122 H   0  0  0  0  0  0  0  0  0  0  0  0
  -20.1646  -23.8072  -38.8385 H   0  0  0  0  0  0  0  0  0  0  0  0
  -20.3027  -22.8396  -37.3815 H   0  0  0  0  0  0  0  0  0  0  0  0
  -19.6786  -25.8323  -37.3532 H   0  0  0  0  0  0  0  0  0  0  0  0
  -19.6595  -24.7424  -35.9633 H   0  0  0  0  0  0  0  0  0  0  0  0
  -17.8529  -24.4396  -38.4238 H   0  0  0  0  0  0  0  0  0  0  0  0
  -17.8130  -23.4353  -36.9862 H   0  0  0  0  0  0  0  0  0  0  0  0
  -17.2366  -26.4269  -36.9808 H   0  0  0  0  0  0  0  0  0  0  0  0
  -17.1827  -25.3636  -35.5852 H   0  0  0  0  0  0  0  0  0  0  0  0
  -15.3341  -24.0432  -36.8467 H   0  0  0  0  0  0  0  0  0  0  0  0
  -15.3405  -25.3625  -38.0020 H   0  0  0  0  0  0  0  0  0  0  0  0
  -14.6555  -25.5671  -35.0254 H   0  0  0  0  0  0  0  0  0  0  0  0
  -14.8686  -26.9727  -36.0733 H   0  0  0  0  0  0  0  0  0  0  0  0
  -12.8736  -24.7053  -36.5977 H   0  0  0  0  0  0  0  0  0  0  0  0
  -13.0332  -26.1875  -37.5435 H   0  0  0  0  0  0  0  0  0  0  0  0
  -12.4470  -27.5344  -35.4963 H   0  0  0  0  0  0  0  0  0  0  0  0
  -12.2523  -26.0327  -34.5883 H   0  0  0  0  0  0  0  0  0  0  0  0
  -10.6513  -26.8465  -37.0716 H   0  0  0  0  0  0  0  0  0  0  0  0
  -10.4558  -25.3167  -36.2233 H   0  0  0  0  0  0  0  0  0  0  0  0
   -9.9729  -26.7898  -34.1261 H   0  0  0  0  0  0  0  0  0  0  0  0
   -8.7091  -26.6186  -35.3387 H   0  0  0  0  0  0  0  0  0  0  0  0
   -9.0836  -28.8246  -36.2130 H   0  0  0  0  0  0  0  0  0  0  0  0
  -10.6692  -28.9573  -35.4477 H   0  0  0  0  0  0  0  0  0  0  0  0
   -4.6249  -30.6321  -36.1790 H   0  0  0  0  0  0  0  0  0  0  0  0
   -4.8963  -32.3543  -36.4994 H   0  0  0  0  0  0  0  0  0  0  0  0
   -8.3400  -28.5441  -33.5987 H   0  0  0  0  0  0  0  0  0  0  0  0
   -9.7339  -29.6230  -33.4119 H   0  0  0  0  0  0  0  0  0  0  0  0
   -6.8382  -32.2797  -35.1675 H   0  0  0  0  0  0  0  0  0  0  0  0
   -8.5760  -31.2931  -34.5372 H   0  0  0  0  0  0  0  0  0  0  0  0
  1 21  1  0  0  0  0
  1 22  1  0  0  0  0
  1 23  2  0  0  0  0
  2  4  1  0  0  0  0
  3  5  1  0  0  0  0
  4  6  1  0  0  0  0
  5 19  1  0  0  0  0
  6  7  1  0  0  0  0
  7  8  1  0  0  0  0
  8  9  1  0  0  0  0
  9 10  1  0  0  0  0
 10 11  1  0  0  0  0
 11 12  1  0  0  0  0
 12 13  1  0  0  0  0
 13 14  1  0  0  0  0
 14 15  1  0  0  0  0
 15 16  1  0  0  0  0
 16 17  1  0  0  0  0
 17 18  1  0  0  0  0
 18 20  1  0  0  0  0
 19 21  1  0  0  0  0
 20 22  1  0  0  0  0
  2 24  1  0  0  0  0
  2 25  1  0  0  0  0
  2 26  1  0  0  0  0
  3 27  1  0  0  0  0
  3 28  1  0  0  0  0
  3 29  1  0  0  0  0
  4 30  1  0  0  0  0
  4 31  1  0  0  0  0
  5 32  1  0  0  0  0
  5 33  1  0  0  0  0
  6 34  1  0  0  0  0
  6 35  1  0  0  0  0
  7 36  1  0  0  0  0
  7 37  1  0  0  0  0
  8 38  1  0  0  0  0
  8 39  1  0  0  0  0
  9 40  1  0  0  0  0
  9 41  1  0  0  0  0
 10 42  1  0  0  0  0
 10 43  1  0  0  0  0
 11 44  1  0  0  0  0
 11 45  1  0  0  0  0
 12 46  1  0  0  0  0
 12 47  1  0  0  0  0
 13 48  1  0  0  0  0
 13 49  1  0  0  0  0
 14 50  1  0  0  0  0
 14 51  1  0  0  0  0
 15 52  1  0  0  0  0
 15 53  1  0  0  0  0
 16 54  1  0  0  0  0
 16 55  1  0  0  0  0
 17 56  1  0  0  0  0
 17 57  1  0  0  0  0
 18 58  1  0  0  0  0
 18 59  1  0  0  0  0
 19 60  1  0  0  0  0
 19 61  1  0  0  0  0
 20 62  1  0  0  0  0
 20 63  1  0  0  0  0
 21 64  1  0  0  0  0
 22 65  1  0  0  0  0
M  END
> <Name>
IA_103.cdx

> <SourceTag>
IA_103

> <Gold.Version>
5.2

> <Gold.Id.Protein>
6HGV|6HGV_protein|mol2

> <Gold.Goldscore.Fitness>
68.2786

> <Gold.Goldscore.Internal.Vdw>
-6.9840

> <Gold.Goldscore.Internal.Torsion>
-5.8550

> <Gold.Goldscore.External.Vdw>
53.2781

> <Gold.Goldscore.Internal.HBond>
0.0000

> <Gold.Goldscore.External.HBond>
0.0000

> <Gold.Goldscore.Internal.Correction>
-7.8602

> <Gold.Goldscore.Internal.Vdw.Weighted>
-6.9840

> <Gold.Goldscore.Internal.Torsion.Weighted>
-5.8550

> <Gold.Goldscore.External.Vdw.Weighted>
73.2574

> <Gold.Goldscore.Internal.HBond.Weighted>
0.0000

> <Gold.Goldscore.External.HBond.Weighted>
0.0000

> <Gold.Goldscore.Internal.Correction.Weighted>
-7.8602

> <Gold.Protein.RotatedTorsions>
[ 3781 1176 1175 1172 ] final  135.02 input   60.00 | X-H torsion
[ 3847 1247 1246 1244 ] final  100.80 input   60.00 | X-H torsion
[ 4507 1931 1930 1928 ] final  102.82 input   60.00 | X-H torsion
[ 3677 1070 1069 1066 ] final  -97.48 input   60.00 | X-H torsion
[ 3525  925  924  922 ] final   61.41 input   59.99 | X-H torsion
[ 4531 1957 1955 1953 ] final   96.56 input   60.00 | X-H torsion

> <Gold.Protein.ActiveResidues>
 PHE267  PRO268  MET310  ASP335  TRP336  MET339  TYR343  THR360  PRO361  ILE363
 PRO371  SER374  ILE375  ASN378  PHE381  TYR383  GLN384  PHE387  LEU408  LEU417
 MET419  LEU428  TYR466  MET469  ASN472  ASP496  VAL498  LEU499  MET503  HIS524
 TRP525

> <Gold.Protein.RotatedAtoms>
   -2.7841  -29.8647  -30.8649 H   0  0  0  0  0  0  0  0  0  0  0  0  # atno 3525 bound_to 925
  -11.7718  -23.7699  -31.4077 H   0  0  0  0  0  0  0  0  0  0  0  0  # atno 3677 bound_to 1070
   -9.6474  -36.9379  -32.4156 H   0  0  0  0  0  0  0  0  0  0  0  0  # atno 3781 bound_to 1176
  -14.3950  -28.5593  -37.6317 H   0  0  0  0  0  0  0  0  0  0  0  0  # atno 3847 bound_to 1247
  -12.4338  -24.1027  -39.1339 H   0  0  0  0  0  0  0  0  0  0  0  0  # atno 4507 bound_to 1931
   -2.7194  -33.8907  -36.7392 H   0  0  0  0  0  0  0  0  0  0  0  0  # atno 4531 bound_to 1957
  -10.8368  -37.3408  -33.4504 LP  0  0  0  0  0  0  0  0  0  0  0  0  # atno 5205 bound_to 1176
   -9.6292  -36.3539  -33.9343 LP  0  0  0  0  0  0  0  0  0  0  0  0  # atno 5206 bound_to 1176
  -15.9169  -28.4827  -37.0609 LP  0  0  0  0  0  0  0  0  0  0  0  0  # atno 5215 bound_to 1247
  -15.2581  -27.1918  -37.8133 LP  0  0  0  0  0  0  0  0  0  0  0  0  # atno 5216 bound_to 1247
  -13.4304  -25.3786  -39.2978 LP  0  0  0  0  0  0  0  0  0  0  0  0  # atno 5217 bound_to 1931
  -13.3350  -24.2563  -40.4801 LP  0  0  0  0  0  0  0  0  0  0  0  0  # atno 5218 bound_to 1931
  -11.3073  -22.3264  -30.8170 LP  0  0  0  0  0  0  0  0  0  0  0  0  # atno 5224 bound_to 1070
  -12.7762  -22.9319  -30.4397 LP  0  0  0  0  0  0  0  0  0  0  0  0  # atno 5225 bound_to 1070

$$$$
IA_104.cdx|SeH_inactivess_minimized|sdf|6|dock2
  -GOLD-   4172118323D 1   1.00000     0.00000

 62 61  0  0  0  0  0  0  0  0  1 V2000
  -23.9619  -22.3860  -39.0552 C   0  0  0  0  0  0  0  0  0  0  0  0
   -4.4124  -33.2940  -34.6836 C   0  0  0  0  0  0  0  0  0  0  0  0
   -3.9382  -31.9400  -34.1787 C   0  0  0  0  0  0  0  0  0  0  0  0
   -4.6498  -30.7586  -34.8430 C   0  0  0  0  0  0  0  0  0  0  0  0
   -6.1181  -30.6296  -34.4296 C   0  0  0  0  0  0  0  0  0  0  0  0
   -6.8323  -29.4474  -35.0936 C   0  0  0  0  0  0  0  0  0  0  0  0
   -8.3309  -29.3274  -34.7975 C   0  0  0  0  0  0  0  0  0  0  0  0
   -9.0416  -28.1397  -35.4540 C   0  0  0  0  0  0  0  0  0  0  0  0
  -10.4831  -27.8958  -34.9953 C   0  0  0  0  0  0  0  0  0  0  0  0
  -11.2685  -26.8543  -35.7982 C   0  0  0  0  0  0  0  0  0  0  0  0
  -12.7563  -26.8090  -35.4439 C   0  0  0  0  0  0  0  0  0  0  0  0
  -13.5214  -25.8754  -36.3847 C   0  0  0  0  0  0  0  0  0  0  0  0
  -14.9902  -25.7548  -35.9748 C   0  0  0  0  0  0  0  0  0  0  0  0
  -15.8049  -25.0125  -37.0354 C   0  0  0  0  0  0  0  0  0  0  0  0
  -17.3015  -25.0560  -36.7184 C   0  0  0  0  0  0  0  0  0  0  0  0
  -18.1144  -24.3130  -37.7804 C   0  0  0  0  0  0  0  0  0  0  0  0
  -19.6242  -24.3430  -37.5242 C   0  0  0  0  0  0  0  0  0  0  0  0
  -20.4921  -23.6137  -38.5569 C   0  0  0  0  0  0  0  0  0  0  0  0
  -21.9962  -23.7433  -38.3372 C   0  0  0  0  0  0  0  0  0  0  0  0
  -24.4982  -21.7856  -40.1803 N   0  0  0  0  0  0  0  0  0  0  0  0
  -22.7620  -23.0380  -39.3276 N   0  0  0  0  0  0  0  0  0  0  0  0
  -24.5022  -22.3362  -37.9516 O   0  0  0  0  0  0  0  0  0  0  0  0
   -5.4505  -33.4651  -34.3809 H   0  0  0  0  0  0  0  0  0  0  0  0
   -3.8015  -34.1035  -34.2715 H   0  0  0  0  0  0  0  0  0  0  0  0
   -4.3728  -33.3515  -35.7754 H   0  0  0  0  0  0  0  0  0  0  0  0
   -4.0664  -31.8904  -33.0911 H   0  0  0  0  0  0  0  0  0  0  0  0
   -2.8628  -31.8522  -34.3750 H   0  0  0  0  0  0  0  0  0  0  0  0
   -4.1178  -29.8394  -34.5688 H   0  0  0  0  0  0  0  0  0  0  0  0
   -4.5702  -30.8598  -35.9313 H   0  0  0  0  0  0  0  0  0  0  0  0
   -6.6579  -31.5564  -34.6505 H   0  0  0  0  0  0  0  0  0  0  0  0
   -6.1728  -30.4911  -33.3426 H   0  0  0  0  0  0  0  0  0  0  0  0
   -6.3264  -28.5220  -34.7940 H   0  0  0  0  0  0  0  0  0  0  0  0
   -6.7022  -29.5217  -36.1808 H   0  0  0  0  0  0  0  0  0  0  0  0
   -8.8204  -30.2590  -35.1055 H   0  0  0  0  0  0  0  0  0  0  0  0
   -8.4817  -29.2645  -33.7131 H   0  0  0  0  0  0  0  0  0  0  0  0
   -8.4461  -27.2369  -35.2731 H   0  0  0  0  0  0  0  0  0  0  0  0
   -9.0428  -28.2734  -36.5425 H   0  0  0  0  0  0  0  0  0  0  0  0
  -11.0217  -28.8511  -35.0348 H   0  0  0  0  0  0  0  0  0  0  0  0
  -10.4835  -27.5952  -33.9410 H   0  0  0  0  0  0  0  0  0  0  0  0
  -11.1472  -27.0356  -36.8721 H   0  0  0  0  0  0  0  0  0  0  0  0
  -10.8243  -25.8705  -35.6009 H   0  0  0  0  0  0  0  0  0  0  0  0
  -13.1888  -27.8135  -35.5080 H   0  0  0  0  0  0  0  0  0  0  0  0
  -12.8774  -26.4672  -34.4091 H   0  0  0  0  0  0  0  0  0  0  0  0
  -13.0556  -24.8825  -36.3766 H   0  0  0  0  0  0  0  0  0  0  0  0
  -13.4563  -26.2552  -37.4117 H   0  0  0  0  0  0  0  0  0  0  0  0
  -15.0621  -25.2238  -35.0179 H   0  0  0  0  0  0  0  0  0  0  0  0
  -15.4120  -26.7557  -35.8218 H   0  0  0  0  0  0  0  0  0  0  0  0
  -15.6248  -25.4630  -38.0190 H   0  0  0  0  0  0  0  0  0  0  0  0
  -15.4710  -23.9693  -37.0911 H   0  0  0  0  0  0  0  0  0  0  0  0
  -17.4817  -24.6051  -35.7352 H   0  0  0  0  0  0  0  0  0  0  0  0
  -17.6245  -26.1016  -36.6617 H   0  0  0  0  0  0  0  0  0  0  0  0
  -17.8926  -24.7218  -38.7728 H   0  0  0  0  0  0  0  0  0  0  0  0
  -17.7967  -23.2628  -37.8040 H   0  0  0  0  0  0  0  0  0  0  0  0
  -19.8149  -23.9203  -36.5301 H   0  0  0  0  0  0  0  0  0  0  0  0
  -19.9536  -25.3888  -37.4764 H   0  0  0  0  0  0  0  0  0  0  0  0
  -20.2409  -24.0092  -39.5495 H   0  0  0  0  0  0  0  0  0  0  0  0
  -20.2258  -22.5507  -38.5762 H   0  0  0  0  0  0  0  0  0  0  0  0
  -22.2670  -23.3191  -37.3650 H   0  0  0  0  0  0  0  0  0  0  0  0
  -22.3176  -24.7886  -38.3445 H   0  0  0  0  0  0  0  0  0  0  0  0
  -25.3708  -21.2697  -40.1444 H   0  0  0  0  0  0  0  0  0  0  0  0
  -24.0310  -21.8429  -41.0791 H   0  0  0  0  0  0  0  0  0  0  0  0
  -22.4071  -23.0137  -40.2825 H   0  0  0  0  0  0  0  0  0  0  0  0
  1 20  1  0  0  0  0
  1 21  1  0  0  0  0
  1 22  2  0  0  0  0
  2  3  1  0  0  0  0
  3  4  1  0  0  0  0
  4  5  1  0  0  0  0
  5  6  1  0  0  0  0
  6  7  1  0  0  0  0
  7  8  1  0  0  0  0
  8  9  1  0  0  0  0
  9 10  1  0  0  0  0
 10 11  1  0  0  0  0
 11 12  1  0  0  0  0
 12 13  1  0  0  0  0
 13 14  1  0  0  0  0
 14 15  1  0  0  0  0
 15 16  1  0  0  0  0
 16 17  1  0  0  0  0
 17 18  1  0  0  0  0
 18 19  1  0  0  0  0
 19 21  1  0  0  0  0
  2 23  1  0  0  0  0
  2 24  1  0  0  0  0
  2 25  1  0  0  0  0
  3 26  1  0  0  0  0
  3 27  1  0  0  0  0
  4 28  1  0  0  0  0
  4 29  1  0  0  0  0
  5 30  1  0  0  0  0
  5 31  1  0  0  0  0
  6 32  1  0  0  0  0
  6 33  1  0  0  0  0
  7 34  1  0  0  0  0
  7 35  1  0  0  0  0
  8 36  1  0  0  0  0
  8 37  1  0  0  0  0
  9 38  1  0  0  0  0
  9 39  1  0  0  0  0
 10 40  1  0  0  0  0
 10 41  1  0  0  0  0
 11 42  1  0  0  0  0
 11 43  1  0  0  0  0
 12 44  1  0  0  0  0
 12 45  1  0  0  0  0
 13 46  1  0  0  0  0
 13 47  1  0  0  0  0
 14 48  1  0  0  0  0
 14 49  1  0  0  0  0
 15 50  1  0  0  0  0
 15 51  1  0  0  0  0
 16 52  1  0  0  0  0
 16 53  1  0  0  0  0
 17 54  1  0  0  0  0
 17 55  1  0  0  0  0
 18 56  1  0  0  0  0
 18 57  1  0  0  0  0
 19 58  1  0  0  0  0
 19 59  1  0  0  0  0
 20 60  1  0  0  0  0
 20 61  1  0  0  0  0
 21 62  1  0  0  0  0
M  END
> <Name>
IA_104.cdx

> <SourceTag>
IA_104

> <Gold.Version>
5.2

> <Gold.Id.Protein>
6HGV|6HGV_protein|mol2

> <Gold.Goldscore.Fitness>
73.8230

> <Gold.Goldscore.Internal.Vdw>
-5.5576

> <Gold.Goldscore.Internal.Torsion>
-2.0744

> <Gold.Goldscore.External.Vdw>
54.1701

> <Gold.Goldscore.Internal.HBond>
0.0000

> <Gold.Goldscore.External.HBond>
0.0000

> <Gold.Goldscore.Internal.Correction>
-6.9712

> <Gold.Goldscore.Internal.Vdw.Weighted>
-5.5576

> <Gold.Goldscore.Internal.Torsion.Weighted>
-2.0744

> <Gold.Goldscore.External.Vdw.Weighted>
74.4839

> <Gold.Goldscore.Internal.HBond.Weighted>
0.0000

> <Gold.Goldscore.External.HBond.Weighted>
0.0000

> <Gold.Goldscore.Internal.Correction.Weighted>
-6.9712

> <Gold.Protein.RotatedTorsions>
[ 3781 1176 1175 1172 ] final  146.02 input   60.00 | X-H torsion
[ 3847 1247 1246 1244 ] final   80.64 input   60.00 | X-H torsion
[ 4507 1931 1930 1928 ] final   98.60 input   60.00 | X-H torsion
[ 3677 1070 1069 1066 ] final -175.79 input   60.00 | X-H torsion
[ 3525  925  924  922 ] final   32.21 input   59.99 | X-H torsion
[ 4531 1957 1955 1953 ] final  -94.09 input   60.00 | X-H torsion

> <Gold.Protein.ActiveResidues>
 PHE267  PRO268  MET310  ASP335  TRP336  MET339  TYR343  THR360  PRO361  ILE363
 PRO371  SER374  ILE375  ASN378  PHE381  TYR383  GLN384  PHE387  LEU408  LEU417
 MET419  LEU428  TYR466  MET469  ASN472  ASP496  VAL498  LEU499  MET503  HIS524
 TRP525

> <Gold.Protein.RotatedAtoms>
   -3.2149  -29.6829  -30.7994 H   0  0  0  0  0  0  0  0  0  0  0  0  # atno 3525 bound_to 925
  -11.0898  -22.8255  -31.2052 H   0  0  0  0  0  0  0  0  0  0  0  0  # atno 3677 bound_to 1070
   -9.5224  -36.8288  -32.4842 H   0  0  0  0  0  0  0  0  0  0  0  0  # atno 3781 bound_to 1176
  -14.5738  -28.7849  -37.4752 H   0  0  0  0  0  0  0  0  0  0  0  0  # atno 3847 bound_to 1247
  -12.4395  -24.1513  -39.0855 H   0  0  0  0  0  0  0  0  0  0  0  0  # atno 4507 bound_to 1931
   -1.5105  -32.4862  -36.9448 H   0  0  0  0  0  0  0  0  0  0  0  0  # atno 4531 bound_to 1957
  -10.8240  -37.3965  -33.2788 LP  0  0  0  0  0  0  0  0  0  0  0  0  # atno 5205 bound_to 1176
   -9.7680  -36.4081  -34.0368 LP  0  0  0  0  0  0  0  0  0  0  0  0  # atno 5206 bound_to 1176
  -16.0453  -28.1853  -37.1243 LP  0  0  0  0  0  0  0  0  0  0  0  0  # atno 5215 bound_to 1247
  -14.9497  -27.2619  -37.9076 LP  0  0  0  0  0  0  0  0  0  0  0  0  # atno 5216 bound_to 1247
  -13.4678  -25.3831  -39.3560 LP  0  0  0  0  0  0  0  0  0  0  0  0  # atno 5217 bound_to 1931
  -13.2919  -24.2028  -40.4707 LP  0  0  0  0  0  0  0  0  0  0  0  0  # atno 5218 bound_to 1931
  -12.3891  -22.3960  -30.3247 LP  0  0  0  0  0  0  0  0  0  0  0  0  # atno 5224 bound_to 1070
  -12.3812  -23.8133  -31.1358 LP  0  0  0  0  0  0  0  0  0  0  0  0  # atno 5225 bound_to 1070

$$$$
IA_104.cdx|SeH_inactivess_minimized|sdf|6|dock4
  -GOLD-   4172118333D 1   1.00000     0.00000

 62 61  0  0  0  0  0  0  0  0  1 V2000
  -24.2847  -22.2937  -39.1973 C   0  0  0  0  0  0  0  0  0  0  0  0
   -4.4022  -33.1015  -34.7259 C   0  0  0  0  0  0  0  0  0  0  0  0
   -4.1450  -31.7725  -34.0326 C   0  0  0  0  0  0  0  0  0  0  0  0
   -4.8535  -30.5905  -34.6990 C   0  0  0  0  0  0  0  0  0  0  0  0
   -6.3440  -30.5115  -34.3588 C   0  0  0  0  0  0  0  0  0  0  0  0
   -7.0706  -29.3727  -35.0825 C   0  0  0  0  0  0  0  0  0  0  0  0
   -8.5674  -29.2441  -34.7808 C   0  0  0  0  0  0  0  0  0  0  0  0
   -9.2925  -28.1054  -35.5048 C   0  0  0  0  0  0  0  0  0  0  0  0
  -10.7654  -27.9143  -35.1283 C   0  0  0  0  0  0  0  0  0  0  0  0
  -11.5771  -27.0087  -36.0596 C   0  0  0  0  0  0  0  0  0  0  0  0
  -13.0669  -26.9610  -35.7147 C   0  0  0  0  0  0  0  0  0  0  0  0
  -13.8285  -26.0438  -36.6744 C   0  0  0  0  0  0  0  0  0  0  0  0
  -15.2748  -25.8411  -36.2195 C   0  0  0  0  0  0  0  0  0  0  0  0
  -16.1478  -25.3127  -37.3589 C   0  0  0  0  0  0  0  0  0  0  0  0
  -17.5303  -24.8952  -36.8526 C   0  0  0  0  0  0  0  0  0  0  0  0
  -18.4313  -24.4499  -38.0062 C   0  0  0  0  0  0  0  0  0  0  0  0
  -19.8131  -23.9710  -37.5508 C   0  0  0  0  0  0  0  0  0  0  0  0
  -20.8129  -23.6540  -38.6696 C   0  0  0  0  0  0  0  0  0  0  0  0
  -22.0989  -22.9754  -38.2077 C   0  0  0  0  0  0  0  0  0  0  0  0
  -24.8387  -21.8854  -40.3973 N   0  0  0  0  0  0  0  0  0  0  0  0
  -22.9181  -22.5394  -39.3046 N   0  0  0  0  0  0  0  0  0  0  0  0
  -24.9444  -22.4186  -38.1669 O   0  0  0  0  0  0  0  0  0  0  0  0
   -4.0345  -33.0647  -35.7564 H   0  0  0  0  0  0  0  0  0  0  0  0
   -5.4725  -33.3289  -34.7559 H   0  0  0  0  0  0  0  0  0  0  0  0
   -3.8873  -33.9240  -34.2205 H   0  0  0  0  0  0  0  0  0  0  0  0
   -4.4464  -31.8447  -32.9811 H   0  0  0  0  0  0  0  0  0  0  0  0
   -3.0656  -31.5789  -34.0399 H   0  0  0  0  0  0  0  0  0  0  0  0
   -4.3614  -29.6665  -34.3716 H   0  0  0  0  0  0  0  0  0  0  0  0
   -4.7157  -30.6571  -35.7842 H   0  0  0  0  0  0  0  0  0  0  0  0
   -6.8361  -31.4634  -34.5841 H   0  0  0  0  0  0  0  0  0  0  0  0
   -6.4565  -30.3529  -33.2791 H   0  0  0  0  0  0  0  0  0  0  0  0
   -6.5677  -28.4291  -34.8402 H   0  0  0  0  0  0  0  0  0  0  0  0
   -6.9491  -29.5078  -36.1649 H   0  0  0  0  0  0  0  0  0  0  0  0
   -9.0528  -30.1967  -35.0244 H   0  0  0  0  0  0  0  0  0  0  0  0
   -8.7090  -29.1134  -33.7012 H   0  0  0  0  0  0  0  0  0  0  0  0
   -8.7466  -27.1730  -35.3174 H   0  0  0  0  0  0  0  0  0  0  0  0
   -9.2302  -28.2655  -36.5879 H   0  0  0  0  0  0  0  0  0  0  0  0
  -11.2415  -28.9024  -35.0942 H   0  0  0  0  0  0  0  0  0  0  0  0
  -10.8316  -27.5147  -34.1095 H   0  0  0  0  0  0  0  0  0  0  0  0
  -11.4462  -27.3239  -37.1010 H   0  0  0  0  0  0  0  0  0  0  0  0
  -11.1621  -25.9951  -35.9912 H   0  0  0  0  0  0  0  0  0  0  0  0
  -13.4971  -27.9673  -35.7655 H   0  0  0  0  0  0  0  0  0  0  0  0
  -13.1948  -26.6033  -34.6860 H   0  0  0  0  0  0  0  0  0  0  0  0
  -13.3229  -25.0723  -36.7337 H   0  0  0  0  0  0  0  0  0  0  0  0
  -13.8173  -26.4767  -37.6822 H   0  0  0  0  0  0  0  0  0  0  0  0
  -15.3003  -25.1362  -35.3797 H   0  0  0  0  0  0  0  0  0  0  0  0
  -15.6820  -26.7924  -35.8558 H   0  0  0  0  0  0  0  0  0  0  0  0
  -16.2569  -26.0871  -38.1278 H   0  0  0  0  0  0  0  0  0  0  0  0
  -15.6547  -24.4545  -37.8315 H   0  0  0  0  0  0  0  0  0  0  0  0
  -17.4251  -24.0763  -36.1309 H   0  0  0  0  0  0  0  0  0  0  0  0
  -17.9871  -25.7392  -36.3237 H   0  0  0  0  0  0  0  0  0  0  0  0
  -18.5354  -25.2636  -38.7331 H   0  0  0  0  0  0  0  0  0  0  0  0
  -17.9463  -23.6227  -38.5400 H   0  0  0  0  0  0  0  0  0  0  0  0
  -19.6814  -23.0816  -36.9225 H   0  0  0  0  0  0  0  0  0  0  0  0
  -20.2561  -24.7369  -36.9017 H   0  0  0  0  0  0  0  0  0  0  0  0
  -21.0670  -24.5958  -39.1729 H   0  0  0  0  0  0  0  0  0  0  0  0
  -20.3308  -23.0246  -39.4263 H   0  0  0  0  0  0  0  0  0  0  0  0
  -21.8574  -22.0852  -37.6180 H   0  0  0  0  0  0  0  0  0  0  0  0
  -22.7019  -23.6366  -37.5790 H   0  0  0  0  0  0  0  0  0  0  0  0
  -25.8255  -21.6665  -40.4817 H   0  0  0  0  0  0  0  0  0  0  0  0
  -24.2706  -21.7912  -41.2327 H   0  0  0  0  0  0  0  0  0  0  0  0
  -22.4745  -22.4022  -40.2116 H   0  0  0  0  0  0  0  0  0  0  0  0
  1 20  1  0  0  0  0
  1 21  1  0  0  0  0
  1 22  2  0  0  0  0
  2  3  1  0  0  0  0
  3  4  1  0  0  0  0
  4  5  1  0  0  0  0
  5  6  1  0  0  0  0
  6  7  1  0  0  0  0
  7  8  1  0  0  0  0
  8  9  1  0  0  0  0
  9 10  1  0  0  0  0
 10 11  1  0  0  0  0
 11 12  1  0  0  0  0
 12 13  1  0  0  0  0
 13 14  1  0  0  0  0
 14 15  1  0  0  0  0
 15 16  1  0  0  0  0
 16 17  1  0  0  0  0
 17 18  1  0  0  0  0
 18 19  1  0  0  0  0
 19 21  1  0  0  0  0
  2 23  1  0  0  0  0
  2 24  1  0  0  0  0
  2 25  1  0  0  0  0
  3 26  1  0  0  0  0
  3 27  1  0  0  0  0
  4 28  1  0  0  0  0
  4 29  1  0  0  0  0
  5 30  1  0  0  0  0
  5 31  1  0  0  0  0
  6 32  1  0  0  0  0
  6 33  1  0  0  0  0
  7 34  1  0  0  0  0
  7 35  1  0  0  0  0
  8 36  1  0  0  0  0
  8 37  1  0  0  0  0
  9 38  1  0  0  0  0
  9 39  1  0  0  0  0
 10 40  1  0  0  0  0
 10 41  1  0  0  0  0
 11 42  1  0  0  0  0
 11 43  1  0  0  0  0
 12 44  1  0  0  0  0
 12 45  1  0  0  0  0
 13 46  1  0  0  0  0
 13 47  1  0  0  0  0
 14 48  1  0  0  0  0
 14 49  1  0  0  0  0
 15 50  1  0  0  0  0
 15 51  1  0  0  0  0
 16 52  1  0  0  0  0
 16 53  1  0  0  0  0
 17 54  1  0  0  0  0
 17 55  1  0  0  0  0
 18 56  1  0  0  0  0
 18 57  1  0  0  0  0
 19 58  1  0  0  0  0
 19 59  1  0  0  0  0
 20 60  1  0  0  0  0
 20 61  1  0  0  0  0
 21 62  1  0  0  0  0
M  END
> <Name>
IA_104.cdx

> <SourceTag>
IA_104

> <Gold.Version>
5.2

> <Gold.Id.Protein>
6HGV|6HGV_protein|mol2

> <Gold.Goldscore.Fitness>
71.6771

> <Gold.Goldscore.Internal.Vdw>
-5.7344

> <Gold.Goldscore.Internal.Torsion>
-3.2023

> <Gold.Goldscore.External.Vdw>
53.5583

> <Gold.Goldscore.Internal.HBond>
0.0000

> <Gold.Goldscore.External.HBond>
0.0000

> <Gold.Goldscore.Internal.Correction>
-6.9712

> <Gold.Goldscore.Internal.Vdw.Weighted>
-5.7344

> <Gold.Goldscore.Internal.Torsion.Weighted>
-3.2023

> <Gold.Goldscore.External.Vdw.Weighted>
73.6426

> <Gold.Goldscore.Internal.HBond.Weighted>
0.0000

> <Gold.Goldscore.External.HBond.Weighted>
0.0000

> <Gold.Goldscore.Internal.Correction.Weighted>
-6.9712

> <Gold.Protein.RotatedTorsions>
[ 3781 1176 1175 1172 ] final  132.21 input   60.00 | X-H torsion
[ 3847 1247 1246 1244 ] final   11.19 input   60.00 | X-H torsion
[ 4507 1931 1930 1928 ] final   89.92 input   60.00 | X-H torsion
[ 3677 1070 1069 1066 ] final  -43.00 input   60.00 | X-H torsion
[ 3525  925  924  922 ] final    9.61 input   59.99 | X-H torsion
[ 4531 1957 1955 1953 ] final  118.90 input   60.00 | X-H torsion

> <Gold.Protein.ActiveResidues>
 PHE267  PRO268  MET310  ASP335  TRP336  MET339  TYR343  THR360  PRO361  ILE363
 PRO371  SER374  ILE375  ASN378  PHE381  TYR383  GLN384  PHE387  LEU408  LEU417
 MET419  LEU428  TYR466  MET469  ASN472  ASP496  VAL498  LEU499  MET503  HIS524
 TRP525

> <Gold.Protein.RotatedAtoms>
   -3.5007  -29.5769  -30.5955 H   0  0  0  0  0  0  0  0  0  0  0  0  # atno 3525 bound_to 925
  -12.5323  -23.7347  -31.0138 H   0  0  0  0  0  0  0  0  0  0  0  0  # atno 3677 bound_to 1070
   -9.6818  -36.9656  -32.4030 H   0  0  0  0  0  0  0  0  0  0  0  0  # atno 3781 bound_to 1176
  -15.5610  -28.8229  -37.0732 H   0  0  0  0  0  0  0  0  0  0  0  0  # atno 3847 bound_to 1247
  -12.4619  -24.2584  -38.9953 H   0  0  0  0  0  0  0  0  0  0  0  0  # atno 4507 bound_to 1931
   -2.3958  -34.0418  -36.8033 H   0  0  0  0  0  0  0  0  0  0  0  0  # atno 4531 bound_to 1957
  -10.8354  -37.3238  -33.4933 LP  0  0  0  0  0  0  0  0  0  0  0  0  # atno 5205 bound_to 1176
   -9.5960  -36.3431  -33.9041 LP  0  0  0  0  0  0  0  0  0  0  0  0  # atno 5206 bound_to 1176
  -15.6948  -27.2905  -37.6041 LP  0  0  0  0  0  0  0  0  0  0  0  0  # atno 5215 bound_to 1247
  -14.3060  -28.1185  -37.8326 LP  0  0  0  0  0  0  0  0  0  0  0  0  # atno 5216 bound_to 1247
  -13.5377  -25.3787  -39.4804 LP  0  0  0  0  0  0  0  0  0  0  0  0  # atno 5217 bound_to 1931
  -13.1994  -24.0993  -40.4371 LP  0  0  0  0  0  0  0  0  0  0  0  0  # atno 5218 bound_to 1931
  -11.1052  -23.0090  -31.3051 LP  0  0  0  0  0  0  0  0  0  0  0  0  # atno 5224 bound_to 1070
  -12.2125  -22.2846  -30.3482 LP  0  0  0  0  0  0  0  0  0  0  0  0  # atno 5225 bound_to 1070

$$$$
IA_104.cdx|SeH_inactivess_minimized|sdf|6|dock3
  -GOLD-   4172118333D 1   1.00000     0.00000

 62 61  0  0  0  0  0  0  0  0  1 V2000
   -4.1170  -29.1252  -33.3490 C   0  0  0  0  0  0  0  0  0  0  0  0
  -23.6211  -22.9989  -35.7894 C   0  0  0  0  0  0  0  0  0  0  0  0
  -23.4114  -23.3813  -37.2464 C   0  0  0  0  0  0  0  0  0  0  0  0
  -21.9796  -23.1516  -37.7367 C   0  0  0  0  0  0  0  0  0  0  0  0
  -20.9645  -24.1051  -37.1012 C   0  0  0  0  0  0  0  0  0  0  0  0
  -19.5523  -23.9581  -37.6779 C   0  0  0  0  0  0  0  0  0  0  0  0
  -18.4701  -24.8096  -37.0059 C   0  0  0  0  0  0  0  0  0  0  0  0
  -17.0390  -24.5672  -37.4956 C   0  0  0  0  0  0  0  0  0  0  0  0
  -15.9413  -25.3038  -36.7210 C   0  0  0  0  0  0  0  0  0  0  0  0
  -14.5123  -25.0916  -37.2301 C   0  0  0  0  0  0  0  0  0  0  0  0
  -13.4405  -25.5923  -36.2599 C   0  0  0  0  0  0  0  0  0  0  0  0
  -12.0528  -25.0832  -36.6566 C   0  0  0  0  0  0  0  0  0  0  0  0
  -10.9874  -25.5374  -35.6574 C   0  0  0  0  0  0  0  0  0  0  0  0
  -10.6410  -27.0152  -35.8464 C   0  0  0  0  0  0  0  0  0  0  0  0
   -9.4904  -27.4383  -34.9304 C   0  0  0  0  0  0  0  0  0  0  0  0
   -9.0026  -28.8484  -35.2691 C   0  0  0  0  0  0  0  0  0  0  0  0
   -7.7317  -29.2515  -34.5152 C   0  0  0  0  0  0  0  0  0  0  0  0
   -7.0126  -30.5011  -35.0377 C   0  0  0  0  0  0  0  0  0  0  0  0
   -5.6639  -30.7859  -34.3837 C   0  0  0  0  0  0  0  0  0  0  0  0
   -3.3114  -28.0527  -33.6877 N   0  0  0  0  0  0  0  0  0  0  0  0
   -4.7675  -29.6653  -34.4556 N   0  0  0  0  0  0  0  0  0  0  0  0
   -4.2298  -29.5358  -32.1953 O   0  0  0  0  0  0  0  0  0  0  0  0
  -23.2507  -21.9844  -35.6105 H   0  0  0  0  0  0  0  0  0  0  0  0
  -23.0817  -23.6791  -35.1227 H   0  0  0  0  0  0  0  0  0  0  0  0
  -24.6809  -23.0164  -35.5185 H   0  0  0  0  0  0  0  0  0  0  0  0
  -23.6931  -24.4306  -37.3928 H   0  0  0  0  0  0  0  0  0  0  0  0
  -24.0903  -22.7820  -37.8650 H   0  0  0  0  0  0  0  0  0  0  0  0
  -21.9641  -23.2847  -38.8254 H   0  0  0  0  0  0  0  0  0  0  0  0
  -21.6971  -22.1112  -37.5393 H   0  0  0  0  0  0  0  0  0  0  0  0
  -20.9354  -23.9610  -36.0161 H   0  0  0  0  0  0  0  0  0  0  0  0
  -21.2923  -25.1389  -37.2674 H   0  0  0  0  0  0  0  0  0  0  0  0
  -19.5873  -24.1917  -38.7485 H   0  0  0  0  0  0  0  0  0  0  0  0
  -19.2513  -22.9049  -37.6106 H   0  0  0  0  0  0  0  0  0  0  0  0
  -18.5175  -24.6390  -35.9238 H   0  0  0  0  0  0  0  0  0  0  0  0
  -18.7076  -25.8714  -37.1436 H   0  0  0  0  0  0  0  0  0  0  0  0
  -16.9838  -24.8451  -38.5549 H   0  0  0  0  0  0  0  0  0  0  0  0
  -16.8219  -23.4926  -37.4658 H   0  0  0  0  0  0  0  0  0  0  0  0
  -15.9920  -24.9885  -35.6711 H   0  0  0  0  0  0  0  0  0  0  0  0
  -16.1548  -26.3791  -36.7213 H   0  0  0  0  0  0  0  0  0  0  0  0
  -14.3450  -24.0321  -37.4548 H   0  0  0  0  0  0  0  0  0  0  0  0
  -14.4100  -25.6271  -38.1825 H   0  0  0  0  0  0  0  0  0  0  0  0
  -13.6672  -25.2551  -35.2424 H   0  0  0  0  0  0  0  0  0  0  0  0
  -13.4395  -26.6888  -36.2473 H   0  0  0  0  0  0  0  0  0  0  0  0
  -11.7980  -25.4520  -37.6576 H   0  0  0  0  0  0  0  0  0  0  0  0
  -12.0648  -23.9877  -36.7086 H   0  0  0  0  0  0  0  0  0  0  0  0
  -11.3486  -25.3725  -34.6350 H   0  0  0  0  0  0  0  0  0  0  0  0
  -10.0833  -24.9294  -35.7830 H   0  0  0  0  0  0  0  0  0  0  0  0
  -10.3636  -27.1968  -36.8919 H   0  0  0  0  0  0  0  0  0  0  0  0
  -11.5246  -27.6294  -35.6346 H   0  0  0  0  0  0  0  0  0  0  0  0
   -9.8217  -27.4049  -33.8856 H   0  0  0  0  0  0  0  0  0  0  0  0
   -8.6683  -26.7214  -35.0348 H   0  0  0  0  0  0  0  0  0  0  0  0
   -8.8439  -28.9380  -36.3498 H   0  0  0  0  0  0  0  0  0  0  0  0
   -9.7895  -29.5698  -35.0144 H   0  0  0  0  0  0  0  0  0  0  0  0
   -7.9879  -29.3983  -33.4588 H   0  0  0  0  0  0  0  0  0  0  0  0
   -7.0246  -28.4126  -34.5413 H   0  0  0  0  0  0  0  0  0  0  0  0
   -6.8667  -30.3802  -36.1188 H   0  0  0  0  0  0  0  0  0  0  0  0
   -7.6598  -31.3768  -34.9136 H   0  0  0  0  0  0  0  0  0  0  0  0
   -5.1721  -31.6194  -34.8955 H   0  0  0  0  0  0  0  0  0  0  0  0
   -5.7748  -31.0615  -33.3312 H   0  0  0  0  0  0  0  0  0  0  0  0
   -2.7699  -27.5521  -32.9913 H   0  0  0  0  0  0  0  0  0  0  0  0
   -3.2373  -27.7346  -34.6483 H   0  0  0  0  0  0  0  0  0  0  0  0
   -4.5983  -29.2423  -35.3670 H   0  0  0  0  0  0  0  0  0  0  0  0
  1 20  1  0  0  0  0
  1 21  1  0  0  0  0
  1 22  2  0  0  0  0
  2  3  1  0  0  0  0
  3  4  1  0  0  0  0
  4  5  1  0  0  0  0
  5  6  1  0  0  0  0
  6  7  1  0  0  0  0
  7  8  1  0  0  0  0
  8  9  1  0  0  0  0
  9 10  1  0  0  0  0
 10 11  1  0  0  0  0
 11 12  1  0  0  0  0
 12 13  1  0  0  0  0
 13 14  1  0  0  0  0
 14 15  1  0  0  0  0
 15 16  1  0  0  0  0
 16 17  1  0  0  0  0
 17 18  1  0  0  0  0
 18 19  1  0  0  0  0
 19 21  1  0  0  0  0
  2 23  1  0  0  0  0
  2 24  1  0  0  0  0
  2 25  1  0  0  0  0
  3 26  1  0  0  0  0
  3 27  1  0  0  0  0
  4 28  1  0  0  0  0
  4 29  1  0  0  0  0
  5 30  1  0  0  0  0
  5 31  1  0  0  0  0
  6 32  1  0  0  0  0
  6 33  1  0  0  0  0
  7 34  1  0  0  0  0
  7 35  1  0  0  0  0
  8 36  1  0  0  0  0
  8 37  1  0  0  0  0
  9 38  1  0  0  0  0
  9 39  1  0  0  0  0
 10 40  1  0  0  0  0
 10 41  1  0  0  0  0
 11 42  1  0  0  0  0
 11 43  1  0  0  0  0
 12 44  1  0  0  0  0
 12 45  1  0  0  0  0
 13 46  1  0  0  0  0
 13 47  1  0  0  0  0
 14 48  1  0  0  0  0
 14 49  1  0  0  0  0
 15 50  1  0  0  0  0
 15 51  1  0  0  0  0
 16 52  1  0  0  0  0
 16 53  1  0  0  0  0
 17 54  1  0  0  0  0
 17 55  1  0  0  0  0
 18 56  1  0  0  0  0
 18 57  1  0  0  0  0
 19 58  1  0  0  0  0
 19 59  1  0  0  0  0
 20 60  1  0  0  0  0
 20 61  1  0  0  0  0
 21 62  1  0  0  0  0
M  END
> <Name>
IA_104.cdx

> <SourceTag>
IA_104

> <Gold.Version>
5.2

> <Gold.Id.Protein>
6HGV|6HGV_protein|mol2

> <Gold.Goldscore.Fitness>
71.1885

> <Gold.Goldscore.Internal.Vdw>
-7.2863

> <Gold.Goldscore.Internal.Torsion>
-3.3653

> <Gold.Goldscore.External.Vdw>
52.9955

> <Gold.Goldscore.Internal.HBond>
0.0000

> <Gold.Goldscore.External.HBond>
2.0000

> <Gold.Goldscore.Internal.Correction>
-6.9712

> <Gold.Goldscore.Hbonds>
donor molecule, donor type, donor heavy atom, donor atom, acceptor molecule, acceptor atom, score
      P1  H   925  3525       L1    22  1.00

> <Gold.Goldscore.Internal.Vdw.Weighted>
-7.2863

> <Gold.Goldscore.Internal.Torsion.Weighted>
-3.3653

> <Gold.Goldscore.External.Vdw.Weighted>
72.8689

> <Gold.Goldscore.Internal.HBond.Weighted>
0.0000

> <Gold.Goldscore.External.HBond.Weighted>
2.0000

> <Gold.Goldscore.Internal.Correction.Weighted>
-6.9712

> <Gold.Protein.RotatedTorsions>
[ 3781 1176 1175 1172 ] final -147.03 input   60.00 | X-H torsion
[ 3847 1247 1246 1244 ] final  121.29 input   60.00 | X-H torsion
[ 4507 1931 1930 1928 ] final  134.05 input   60.00 | X-H torsion
[ 3677 1070 1069 1066 ] final -137.67 input   60.00 | X-H torsion
[ 3525  925  924  922 ] final   27.44 input   59.99 | X-H torsion
[ 4531 1957 1955 1953 ] final   36.53 input   60.00 | X-H torsion

> <Gold.Protein.ActiveResidues>
 PHE267  PRO268  MET310  ASP335  TRP336  MET339  TYR343  THR360  PRO361  ILE363
 PRO371  SER374  ILE375  ASN378  PHE381  TYR383  GLN384  PHE387  LEU408  LEU417
 MET419  LEU428  TYR466  MET469  ASN472  ASP496  VAL498  LEU499  MET503  HIS524
 TRP525

> <Gold.Protein.RotatedAtoms>
   -3.2806  -29.6572  -30.7666 H   0  0  0  0  0  0  0  0  0  0  0  0  # atno 3525 bound_to 925
  -11.2706  -23.3669  -31.4247 H   0  0  0  0  0  0  0  0  0  0  0  0  # atno 3677 bound_to 1070
   -9.2779  -36.3379  -33.3593 H   0  0  0  0  0  0  0  0  0  0  0  0  # atno 3781 bound_to 1176
  -14.3130  -28.2700  -37.7745 H   0  0  0  0  0  0  0  0  0  0  0  0  # atno 3847 bound_to 1247
  -12.4967  -23.8381  -39.5582 H   0  0  0  0  0  0  0  0  0  0  0  0  # atno 4507 bound_to 1931
   -3.0939  -33.0365  -36.6532 H   0  0  0  0  0  0  0  0  0  0  0  0  # atno 4531 bound_to 1957
  -10.2136  -37.3027  -32.4420 LP  0  0  0  0  0  0  0  0  0  0  0  0  # atno 5205 bound_to 1176
  -10.6246  -36.9963  -33.9924 LP  0  0  0  0  0  0  0  0  0  0  0  0  # atno 5206 bound_to 1176
  -15.6952  -28.7339  -37.0518 LP  0  0  0  0  0  0  0  0  0  0  0  0  # atno 5215 bound_to 1247
  -15.5624  -27.2319  -37.6785 LP  0  0  0  0  0  0  0  0  0  0  0  0  # atno 5216 bound_to 1247
  -13.1070  -25.2152  -38.9424 LP  0  0  0  0  0  0  0  0  0  0  0  0  # atno 5217 bound_to 1931
  -13.5951  -24.6861  -40.4082 LP  0  0  0  0  0  0  0  0  0  0  0  0  # atno 5218 bound_to 1931
  -11.8337  -22.1742  -30.4715 LP  0  0  0  0  0  0  0  0  0  0  0  0  # atno 5224 bound_to 1070
  -12.7545  -23.4898  -30.7681 LP  0  0  0  0  0  0  0  0  0  0  0  0  # atno 5225 bound_to 1070

$$$$
IA_104.cdx|SeH_inactivess_minimized|sdf|6|dock7
  -GOLD-   4172118343D 1   1.00000     0.00000

 62 61  0  0  0  0  0  0  0  0  1 V2000
   -5.3605  -34.0229  -34.7094 C   0  0  0  0  0  0  0  0  0  0  0  0
  -23.6512  -22.7861  -38.8488 C   0  0  0  0  0  0  0  0  0  0  0  0
  -22.1967  -22.9092  -39.2760 C   0  0  0  0  0  0  0  0  0  0  0  0
  -21.2931  -23.5091  -38.1957 C   0  0  0  0  0  0  0  0  0  0  0  0
  -19.8308  -23.6302  -38.6320 C   0  0  0  0  0  0  0  0  0  0  0  0
  -18.9435  -24.3209  -37.5906 C   0  0  0  0  0  0  0  0  0  0  0  0
  -17.4359  -24.2560  -37.8568 C   0  0  0  0  0  0  0  0  0  0  0  0
  -16.5597  -25.0693  -36.8990 C   0  0  0  0  0  0  0  0  0  0  0  0
  -15.0496  -24.9694  -37.1379 C   0  0  0  0  0  0  0  0  0  0  0  0
  -14.1653  -25.6720  -36.1033 C   0  0  0  0  0  0  0  0  0  0  0  0
  -12.6694  -25.5567  -36.4033 C   0  0  0  0  0  0  0  0  0  0  0  0
  -11.8344  -26.2747  -35.3406 C   0  0  0  0  0  0  0  0  0  0  0  0
  -10.3371  -26.0753  -35.5817 C   0  0  0  0  0  0  0  0  0  0  0  0
   -9.5070  -27.0976  -34.8037 C   0  0  0  0  0  0  0  0  0  0  0  0
   -9.5935  -28.4858  -35.4420 C   0  0  0  0  0  0  0  0  0  0  0  0
   -8.4603  -29.3910  -34.9547 C   0  0  0  0  0  0  0  0  0  0  0  0
   -8.5617  -30.8283  -35.4743 C   0  0  0  0  0  0  0  0  0  0  0  0
   -7.3557  -31.7302  -35.1851 C   0  0  0  0  0  0  0  0  0  0  0  0
   -7.5063  -33.1736  -35.6558 C   0  0  0  0  0  0  0  0  0  0  0  0
   -4.8699  -35.0283  -33.8956 N   0  0  0  0  0  0  0  0  0  0  0  0
   -6.7427  -34.0962  -34.8618 N   0  0  0  0  0  0  0  0  0  0  0  0
   -4.6383  -33.1731  -35.2279 O   0  0  0  0  0  0  0  0  0  0  0  0
  -24.2347  -22.3021  -39.6385 H   0  0  0  0  0  0  0  0  0  0  0  0
  -23.7446  -22.1827  -37.9403 H   0  0  0  0  0  0  0  0  0  0  0  0
  -24.0986  -23.7666  -38.6610 H   0  0  0  0  0  0  0  0  0  0  0  0
  -22.1344  -23.5092  -40.1913 H   0  0  0  0  0  0  0  0  0  0  0  0
  -21.8214  -21.9097  -39.5264 H   0  0  0  0  0  0  0  0  0  0  0  0
  -21.3504  -22.8695  -37.3064 H   0  0  0  0  0  0  0  0  0  0  0  0
  -21.6849  -24.4911  -37.9071 H   0  0  0  0  0  0  0  0  0  0  0  0
  -19.7617  -24.1638  -39.5857 H   0  0  0  0  0  0  0  0  0  0  0  0
  -19.4261  -22.6260  -38.8092 H   0  0  0  0  0  0  0  0  0  0  0  0
  -19.1589  -23.8872  -36.6070 H   0  0  0  0  0  0  0  0  0  0  0  0
  -19.2350  -25.3768  -37.5230 H   0  0  0  0  0  0  0  0  0  0  0  0
  -17.2516  -24.5858  -38.8862 H   0  0  0  0  0  0  0  0  0  0  0  0
  -17.1071  -23.2104  -37.8232 H   0  0  0  0  0  0  0  0  0  0  0  0
  -16.7857  -24.7561  -35.8727 H   0  0  0  0  0  0  0  0  0  0  0  0
  -16.8490  -26.1259  -36.9502 H   0  0  0  0  0  0  0  0  0  0  0  0
  -14.8311  -25.3858  -38.1295 H   0  0  0  0  0  0  0  0  0  0  0  0
  -14.7578  -23.9136  -37.1857 H   0  0  0  0  0  0  0  0  0  0  0  0
  -14.4478  -26.7276  -36.0199 H   0  0  0  0  0  0  0  0  0  0  0  0
  -14.3687  -25.2215  -35.1235 H   0  0  0  0  0  0  0  0  0  0  0  0
  -12.4482  -25.9907  -37.3847 H   0  0  0  0  0  0  0  0  0  0  0  0
  -12.3829  -24.4990  -36.4425 H   0  0  0  0  0  0  0  0  0  0  0  0
  -12.0996  -25.8955  -34.3462 H   0  0  0  0  0  0  0  0  0  0  0  0
  -12.0690  -27.3462  -35.3516 H   0  0  0  0  0  0  0  0  0  0  0  0
  -10.0484  -25.0612  -35.2798 H   0  0  0  0  0  0  0  0  0  0  0  0
  -10.1224  -26.1672  -36.6534 H   0  0  0  0  0  0  0  0  0  0  0  0
   -9.8625  -27.1474  -33.7673 H   0  0  0  0  0  0  0  0  0  0  0  0
   -8.4601  -26.7722  -34.7715 H   0  0  0  0  0  0  0  0  0  0  0  0
   -9.5454  -28.3916  -36.5335 H   0  0  0  0  0  0  0  0  0  0  0  0
  -10.5633  -28.9326  -35.1958 H   0  0  0  0  0  0  0  0  0  0  0  0
   -8.4262  -29.3881  -33.8592 H   0  0  0  0  0  0  0  0  0  0  0  0
   -7.5016  -28.9768  -35.2919 H   0  0  0  0  0  0  0  0  0  0  0  0
   -8.7343  -30.7934  -36.5570 H   0  0  0  0  0  0  0  0  0  0  0  0
   -9.4535  -31.2985  -35.0409 H   0  0  0  0  0  0  0  0  0  0  0  0
   -7.1811  -31.7244  -34.1015 H   0  0  0  0  0  0  0  0  0  0  0  0
   -6.4567  -31.2997  -35.6408 H   0  0  0  0  0  0  0  0  0  0  0  0
   -7.1466  -33.2674  -36.6856 H   0  0  0  0  0  0  0  0  0  0  0  0
   -8.5506  -33.4981  -35.6380 H   0  0  0  0  0  0  0  0  0  0  0  0
   -3.8807  -35.1097  -33.6864 H   0  0  0  0  0  0  0  0  0  0  0  0
   -5.4888  -35.7170  -33.4809 H   0  0  0  0  0  0  0  0  0  0  0  0
   -7.2404  -34.8457  -34.3837 H   0  0  0  0  0  0  0  0  0  0  0  0
  1 20  1  0  0  0  0
  1 21  1  0  0  0  0
  1 22  2  0  0  0  0
  2  3  1  0  0  0  0
  3  4  1  0  0  0  0
  4  5  1  0  0  0  0
  5  6  1  0  0  0  0
  6  7  1  0  0  0  0
  7  8  1  0  0  0  0
  8  9  1  0  0  0  0
  9 10  1  0  0  0  0
 10 11  1  0  0  0  0
 11 12  1  0  0  0  0
 12 13  1  0  0  0  0
 13 14  1  0  0  0  0
 14 15  1  0  0  0  0
 15 16  1  0  0  0  0
 16 17  1  0  0  0  0
 17 18  1  0  0  0  0
 18 19  1  0  0  0  0
 19 21  1  0  0  0  0
  2 23  1  0  0  0  0
  2 24  1  0  0  0  0
  2 25  1  0  0  0  0
  3 26  1  0  0  0  0
  3 27  1  0  0  0  0
  4 28  1  0  0  0  0
  4 29  1  0  0  0  0
  5 30  1  0  0  0  0
  5 31  1  0  0  0  0
  6 32  1  0  0  0  0
  6 33  1  0  0  0  0
  7 34  1  0  0  0  0
  7 35  1  0  0  0  0
  8 36  1  0  0  0  0
  8 37  1  0  0  0  0
  9 38  1  0  0  0  0
  9 39  1  0  0  0  0
 10 40  1  0  0  0  0
 10 41  1  0  0  0  0
 11 42  1  0  0  0  0
 11 43  1  0  0  0  0
 12 44  1  0  0  0  0
 12 45  1  0  0  0  0
 13 46  1  0  0  0  0
 13 47  1  0  0  0  0
 14 48  1  0  0  0  0
 14 49  1  0  0  0  0
 15 50  1  0  0  0  0
 15 51  1  0  0  0  0
 16 52  1  0  0  0  0
 16 53  1  0  0  0  0
 17 54  1  0  0  0  0
 17 55  1  0  0  0  0
 18 56  1  0  0  0  0
 18 57  1  0  0  0  0
 19 58  1  0  0  0  0
 19 59  1  0  0  0  0
 20 60  1  0  0  0  0
 20 61  1  0  0  0  0
 21 62  1  0  0  0  0
M  END
> <Name>
IA_104.cdx

> <SourceTag>
IA_104

> <Gold.Version>
5.2

> <Gold.Id.Protein>
6HGV|6HGV_protein|mol2

> <Gold.Goldscore.Fitness>
70.6008

> <Gold.Goldscore.Internal.Vdw>
-6.6859

> <Gold.Goldscore.Internal.Torsion>
-4.2554

> <Gold.Goldscore.External.Vdw>
53.1146

> <Gold.Goldscore.Internal.HBond>
0.0000

> <Gold.Goldscore.External.HBond>
1.5383

> <Gold.Goldscore.Internal.Correction>
-6.9712

> <Gold.Goldscore.Hbonds>
donor molecule, donor type, donor heavy atom, donor atom, acceptor molecule, acceptor atom, score
      P1  H  1957  4531       L1    22  0.77

> <Gold.Goldscore.Internal.Vdw.Weighted>
-6.6859

> <Gold.Goldscore.Internal.Torsion.Weighted>
-4.2554

> <Gold.Goldscore.External.Vdw.Weighted>
73.0326

> <Gold.Goldscore.Internal.HBond.Weighted>
0.0000

> <Gold.Goldscore.External.HBond.Weighted>
1.5383

> <Gold.Goldscore.Internal.Correction.Weighted>
-6.9712

> <Gold.Protein.RotatedTorsions>
[ 3781 1176 1175 1172 ] final -139.23 input   60.00 | X-H torsion
[ 3847 1247 1246 1244 ] final  118.10 input   60.00 | X-H torsion
[ 4507 1931 1930 1928 ] final   95.67 input   60.00 | X-H torsion
[ 3677 1070 1069 1066 ] final  -98.69 input   60.00 | X-H torsion
[ 3525  925  924  922 ] final  -42.22 input   59.99 | X-H torsion
[ 4531 1957 1955 1953 ] final   44.66 input   60.00 | X-H torsion

> <Gold.Protein.ActiveResidues>
 PHE267  PRO268  MET310  ASP335  TRP336  MET339  TYR343  THR360  PRO361  ILE363
 PRO371  SER374  ILE375  ASN378  PHE381  TYR383  GLN384  PHE387  LEU408  LEU417
 MET419  LEU428  TYR466  MET469  ASN472  ASP496  VAL498  LEU499  MET503  HIS524
 TRP525

> <Gold.Protein.RotatedAtoms>
   -3.7693  -29.5305  -29.8238 H   0  0  0  0  0  0  0  0  0  0  0  0  # atno 3525 bound_to 925
  -11.7541  -23.7624  -31.4122 H   0  0  0  0  0  0  0  0  0  0  0  0  # atno 3677 bound_to 1070
   -9.3168  -36.3191  -33.4790 H   0  0  0  0  0  0  0  0  0  0  0  0  # atno 3781 bound_to 1176
  -14.3186  -28.3176  -37.7541 H   0  0  0  0  0  0  0  0  0  0  0  0  # atno 3847 bound_to 1247
  -12.4455  -24.1865  -39.0535 H   0  0  0  0  0  0  0  0  0  0  0  0  # atno 4507 bound_to 1931
   -3.0983  -33.1691  -36.6547 H   0  0  0  0  0  0  0  0  0  0  0  0  # atno 4531 bound_to 1957
  -10.1062  -37.2468  -32.4000 LP  0  0  0  0  0  0  0  0  0  0  0  0  # atno 5205 bound_to 1176
  -10.6928  -37.0712  -33.9138 LP  0  0  0  0  0  0  0  0  0  0  0  0  # atno 5206 bound_to 1176
  -15.7348  -28.6996  -37.0495 LP  0  0  0  0  0  0  0  0  0  0  0  0  # atno 5215 bound_to 1247
  -15.5172  -27.2183  -37.7015 LP  0  0  0  0  0  0  0  0  0  0  0  0  # atno 5216 bound_to 1247
  -13.4925  -25.3837  -39.3975 LP  0  0  0  0  0  0  0  0  0  0  0  0  # atno 5217 bound_to 1931
  -13.2611  -24.1667  -40.4614 LP  0  0  0  0  0  0  0  0  0  0  0  0  # atno 5218 bound_to 1931
  -11.3197  -22.3163  -30.8052 LP  0  0  0  0  0  0  0  0  0  0  0  0  # atno 5224 bound_to 1070
  -12.7817  -22.9495  -30.4470 LP  0  0  0  0  0  0  0  0  0  0  0  0  # atno 5225 bound_to 1070

$$$$
IA_104.cdx|SeH_inactivess_minimized|sdf|6|dock9
  -GOLD-   4172118353D 1   1.00000     0.00000

 62 61  0  0  0  0  0  0  0  0  1 V2000
   -5.0562  -33.2866  -34.8300 C   0  0  0  0  0  0  0  0  0  0  0  0
  -22.5639  -22.7818  -39.4265 C   0  0  0  0  0  0  0  0  0  0  0  0
  -21.7287  -23.8083  -38.6769 C   0  0  0  0  0  0  0  0  0  0  0  0
  -20.2357  -23.4717  -38.6430 C   0  0  0  0  0  0  0  0  0  0  0  0
  -19.4010  -24.5088  -37.8872 C   0  0  0  0  0  0  0  0  0  0  0  0
  -17.8916  -24.2689  -37.9990 C   0  0  0  0  0  0  0  0  0  0  0  0
  -17.0074  -25.2204  -37.1862 C   0  0  0  0  0  0  0  0  0  0  0  0
  -15.4987  -24.9796  -37.2987 C   0  0  0  0  0  0  0  0  0  0  0  0
  -14.6412  -25.6368  -36.2123 C   0  0  0  0  0  0  0  0  0  0  0  0
  -13.1269  -25.5774  -36.4346 C   0  0  0  0  0  0  0  0  0  0  0  0
  -12.3151  -25.8413  -35.1648 C   0  0  0  0  0  0  0  0  0  0  0  0
  -10.8135  -25.8539  -35.4601 C   0  0  0  0  0  0  0  0  0  0  0  0
  -10.0067  -26.2466  -34.2213 C   0  0  0  0  0  0  0  0  0  0  0  0
  -10.1038  -27.7482  -33.9468 C   0  0  0  0  0  0  0  0  0  0  0  0
   -9.1793  -28.5436  -34.8713 C   0  0  0  0  0  0  0  0  0  0  0  0
   -9.2781  -30.0452  -34.5950 C   0  0  0  0  0  0  0  0  0  0  0  0
   -8.2566  -30.8774  -35.3760 C   0  0  0  0  0  0  0  0  0  0  0  0
   -8.3075  -32.3918  -35.1397 C   0  0  0  0  0  0  0  0  0  0  0  0
   -7.2893  -33.2003  -35.9379 C   0  0  0  0  0  0  0  0  0  0  0  0
   -3.8252  -32.6556  -34.8460 N   0  0  0  0  0  0  0  0  0  0  0  0
   -5.9434  -32.7335  -35.7499 N   0  0  0  0  0  0  0  0  0  0  0  0
   -5.3137  -34.2263  -34.0796 O   0  0  0  0  0  0  0  0  0  0  0  0
  -22.4870  -21.8056  -38.9370 H   0  0  0  0  0  0  0  0  0  0  0  0
  -23.6196  -23.0702  -39.4433 H   0  0  0  0  0  0  0  0  0  0  0  0
  -22.2210  -22.6619  -40.4585 H   0  0  0  0  0  0  0  0  0  0  0  0
  -22.1114  -23.9148  -37.6553 H   0  0  0  0  0  0  0  0  0  0  0  0
  -21.8537  -24.7825  -39.1650 H   0  0  0  0  0  0  0  0  0  0  0  0
  -19.8754  -23.4055  -39.6769 H   0  0  0  0  0  0  0  0  0  0  0  0
  -20.1033  -22.4800  -38.1958 H   0  0  0  0  0  0  0  0  0  0  0  0
  -19.6921  -24.5348  -36.8319 H   0  0  0  0  0  0  0  0  0  0  0  0
  -19.6165  -25.5054  -38.2924 H   0  0  0  0  0  0  0  0  0  0  0  0
  -17.6078  -24.3219  -39.0567 H   0  0  0  0  0  0  0  0  0  0  0  0
  -17.6728  -23.2415  -37.6811 H   0  0  0  0  0  0  0  0  0  0  0  0
  -17.3076  -25.1578  -36.1334 H   0  0  0  0  0  0  0  0  0  0  0  0
  -17.2161  -26.2541  -37.4870 H   0  0  0  0  0  0  0  0  0  0  0  0
  -15.1651  -25.3277  -38.2837 H   0  0  0  0  0  0  0  0  0  0  0  0
  -15.3013  -23.9009  -37.2901 H   0  0  0  0  0  0  0  0  0  0  0  0
  -14.8760  -25.1573  -35.2535 H   0  0  0  0  0  0  0  0  0  0  0  0
  -14.9359  -26.6870  -36.1019 H   0  0  0  0  0  0  0  0  0  0  0  0
  -12.8458  -24.6078  -36.8611 H   0  0  0  0  0  0  0  0  0  0  0  0
  -12.8663  -26.3313  -37.1882 H   0  0  0  0  0  0  0  0  0  0  0  0
  -12.5256  -25.0692  -34.4166 H   0  0  0  0  0  0  0  0  0  0  0  0
  -12.6122  -26.8041  -34.7322 H   0  0  0  0  0  0  0  0  0  0  0  0
  -10.6043  -26.5596  -36.2731 H   0  0  0  0  0  0  0  0  0  0  0  0
  -10.4988  -24.8610  -35.8042 H   0  0  0  0  0  0  0  0  0  0  0  0
  -10.3748  -25.6894  -33.3513 H   0  0  0  0  0  0  0  0  0  0  0  0
   -8.9558  -25.9666  -34.3636 H   0  0  0  0  0  0  0  0  0  0  0  0
  -11.1392  -28.0814  -34.0880 H   0  0  0  0  0  0  0  0  0  0  0  0
   -9.8392  -27.9481  -32.9014 H   0  0  0  0  0  0  0  0  0  0  0  0
   -8.1440  -28.2110  -34.7297 H   0  0  0  0  0  0  0  0  0  0  0  0
   -9.4493  -28.3348  -35.9125 H   0  0  0  0  0  0  0  0  0  0  0  0
  -10.2936  -30.3973  -34.8093 H   0  0  0  0  0  0  0  0  0  0  0  0
   -9.1117  -30.2236  -33.5249 H   0  0  0  0  0  0  0  0  0  0  0  0
   -7.2523  -30.5084  -35.1343 H   0  0  0  0  0  0  0  0  0  0  0  0
   -8.3967  -30.6926  -36.4486 H   0  0  0  0  0  0  0  0  0  0  0  0
   -9.3172  -32.7398  -35.3928 H   0  0  0  0  0  0  0  0  0  0  0  0
   -8.1711  -32.6024  -34.0728 H   0  0  0  0  0  0  0  0  0  0  0  0
   -7.5072  -33.1188  -37.0077 H   0  0  0  0  0  0  0  0  0  0  0  0
   -7.3179  -34.2611  -35.6731 H   0  0  0  0  0  0  0  0  0  0  0  0
   -3.0702  -32.9443  -34.2332 H   0  0  0  0  0  0  0  0  0  0  0  0
   -3.6399  -31.8819  -35.4757 H   0  0  0  0  0  0  0  0  0  0  0  0
   -5.6202  -31.9544  -36.3215 H   0  0  0  0  0  0  0  0  0  0  0  0
  1 20  1  0  0  0  0
  1 21  1  0  0  0  0
  1 22  2  0  0  0  0
  2  3  1  0  0  0  0
  3  4  1  0  0  0  0
  4  5  1  0  0  0  0
  5  6  1  0  0  0  0
  6  7  1  0  0  0  0
  7  8  1  0  0  0  0
  8  9  1  0  0  0  0
  9 10  1  0  0  0  0
 10 11  1  0  0  0  0
 11 12  1  0  0  0  0
 12 13  1  0  0  0  0
 13 14  1  0  0  0  0
 14 15  1  0  0  0  0
 15 16  1  0  0  0  0
 16 17  1  0  0  0  0
 17 18  1  0  0  0  0
 18 19  1  0  0  0  0
 19 21  1  0  0  0  0
  2 23  1  0  0  0  0
  2 24  1  0  0  0  0
  2 25  1  0  0  0  0
  3 26  1  0  0  0  0
  3 27  1  0  0  0  0
  4 28  1  0  0  0  0
  4 29  1  0  0  0  0
  5 30  1  0  0  0  0
  5 31  1  0  0  0  0
  6 32  1  0  0  0  0
  6 33  1  0  0  0  0
  7 34  1  0  0  0  0
  7 35  1  0  0  0  0
  8 36  1  0  0  0  0
  8 37  1  0  0  0  0
  9 38  1  0  0  0  0
  9 39  1  0  0  0  0
 10 40  1  0  0  0  0
 10 41  1  0  0  0  0
 11 42  1  0  0  0  0
 11 43  1  0  0  0  0
 12 44  1  0  0  0  0
 12 45  1  0  0  0  0
 13 46  1  0  0  0  0
 13 47  1  0  0  0  0
 14 48  1  0  0  0  0
 14 49  1  0  0  0  0
 15 50  1  0  0  0  0
 15 51  1  0  0  0  0
 16 52  1  0  0  0  0
 16 53  1  0  0  0  0
 17 54  1  0  0  0  0
 17 55  1  0  0  0  0
 18 56  1  0  0  0  0
 18 57  1  0  0  0  0
 19 58  1  0  0  0  0
 19 59  1  0  0  0  0
 20 60  1  0  0  0  0
 20 61  1  0  0  0  0
 21 62  1  0  0  0  0
M  END
> <Name>
IA_104.cdx

> <SourceTag>
IA_104

> <Gold.Version>
5.2

> <Gold.Id.Protein>
6HGV|6HGV_protein|mol2

> <Gold.Goldscore.Fitness>
69.9634

> <Gold.Goldscore.Internal.Vdw>
-9.5259

> <Gold.Goldscore.Internal.Torsion>
-3.5761

> <Gold.Goldscore.External.Vdw>
55.3412

> <Gold.Goldscore.Internal.HBond>
0.0000

> <Gold.Goldscore.External.HBond>
0.0000

> <Gold.Goldscore.Internal.Correction>
-6.9712

> <Gold.Goldscore.Internal.Vdw.Weighted>
-9.5259

> <Gold.Goldscore.Internal.Torsion.Weighted>
-3.5761

> <Gold.Goldscore.External.Vdw.Weighted>
76.0942

> <Gold.Goldscore.Internal.HBond.Weighted>
0.0000

> <Gold.Goldscore.External.HBond.Weighted>
0.0000

> <Gold.Goldscore.Internal.Correction.Weighted>
-6.9712

> <Gold.Protein.RotatedTorsions>
[ 3781 1176 1175 1172 ] final -124.36 input   60.00 | X-H torsion
[ 3847 1247 1246 1244 ] final   43.52 input   60.00 | X-H torsion
[ 4507 1931 1930 1928 ] final  103.91 input   60.00 | X-H torsion
[ 3677 1070 1069 1066 ] final  -97.77 input   60.00 | X-H torsion
[ 3525  925  924  922 ] final   27.97 input   59.99 | X-H torsion
[ 4531 1957 1955 1953 ] final  123.74 input   60.00 | X-H torsion

> <Gold.Protein.ActiveResidues>
 PHE267  PRO268  MET310  ASP335  TRP336  MET339  TYR343  THR360  PRO361  ILE363
 PRO371  SER374  ILE375  ASN378  PHE381  TYR383  GLN384  PHE387  LEU408  LEU417
 MET419  LEU428  TYR466  MET469  ASN472  ASP496  VAL498  LEU499  MET503  HIS524
 TRP525

> <Gold.Protein.RotatedAtoms>
   -3.2734  -29.6600  -30.7705 H   0  0  0  0  0  0  0  0  0  0  0  0  # atno 3525 bound_to 925
  -11.7676  -23.7681  -31.4088 H   0  0  0  0  0  0  0  0  0  0  0  0  # atno 3677 bound_to 1070
   -9.4272  -36.3120  -33.6946 H   0  0  0  0  0  0  0  0  0  0  0  0  # atno 3781 bound_to 1176
  -15.0775  -28.9615  -37.2099 H   0  0  0  0  0  0  0  0  0  0  0  0  # atno 3847 bound_to 1247
  -12.4329  -24.0905  -39.1469 H   0  0  0  0  0  0  0  0  0  0  0  0  # atno 4507 bound_to 1931
   -2.3197  -34.0569  -36.8181 H   0  0  0  0  0  0  0  0  0  0  0  0  # atno 4531 bound_to 1957
   -9.8994  -37.1221  -32.3646 LP  0  0  0  0  0  0  0  0  0  0  0  0  # atno 5205 bound_to 1176
  -10.7884  -37.2030  -33.7321 LP  0  0  0  0  0  0  0  0  0  0  0  0  # atno 5206 bound_to 1176
  -16.0043  -27.6316  -37.3522 LP  0  0  0  0  0  0  0  0  0  0  0  0  # atno 5215 bound_to 1247
  -14.4834  -27.6378  -37.9468 LP  0  0  0  0  0  0  0  0  0  0  0  0  # atno 5216 bound_to 1247
  -13.4204  -25.3767  -39.2830 LP  0  0  0  0  0  0  0  0  0  0  0  0  # atno 5217 bound_to 1931
  -13.3459  -24.2703  -40.4818 LP  0  0  0  0  0  0  0  0  0  0  0  0  # atno 5218 bound_to 1931
  -11.3102  -22.3240  -30.8142 LP  0  0  0  0  0  0  0  0  0  0  0  0  # atno 5224 bound_to 1070
  -12.7775  -22.9360  -30.4414 LP  0  0  0  0  0  0  0  0  0  0  0  0  # atno 5225 bound_to 1070

$$$$
IA_104.cdx|SeH_inactivess_minimized|sdf|6|dock10
  -GOLD-   4172118353D 1   1.00000     0.00000

 62 61  0  0  0  0  0  0  0  0  1 V2000
   -3.5882  -32.9609  -33.2729 C   0  0  0  0  0  0  0  0  0  0  0  0
  -21.7419  -23.3884  -39.6182 C   0  0  0  0  0  0  0  0  0  0  0  0
  -20.8626  -24.3387  -38.8201 C   0  0  0  0  0  0  0  0  0  0  0  0
  -20.5046  -23.8132  -37.4277 C   0  0  0  0  0  0  0  0  0  0  0  0
  -19.5627  -24.7417  -36.6568 C   0  0  0  0  0  0  0  0  0  0  0  0
  -18.1274  -24.7298  -37.1940 C   0  0  0  0  0  0  0  0  0  0  0  0
  -17.0645  -25.3135  -36.2574 C   0  0  0  0  0  0  0  0  0  0  0  0
  -15.6264  -25.2752  -36.7837 C   0  0  0  0  0  0  0  0  0  0  0  0
  -14.5636  -25.8589  -35.8471 C   0  0  0  0  0  0  0  0  0  0  0  0
  -13.1097  -25.6612  -36.2868 C   0  0  0  0  0  0  0  0  0  0  0  0
  -12.0932  -26.2636  -35.3148 C   0  0  0  0  0  0  0  0  0  0  0  0
  -10.6591  -25.9581  -35.7534 C   0  0  0  0  0  0  0  0  0  0  0  0
   -9.6407  -26.6398  -34.8380 C   0  0  0  0  0  0  0  0  0  0  0  0
   -9.4735  -28.1178  -35.1947 C   0  0  0  0  0  0  0  0  0  0  0  0
   -8.1634  -28.6796  -34.6379 C   0  0  0  0  0  0  0  0  0  0  0  0
   -7.9983  -30.1579  -34.9958 C   0  0  0  0  0  0  0  0  0  0  0  0
   -6.5417  -30.6312  -34.9757 C   0  0  0  0  0  0  0  0  0  0  0  0
   -6.3252  -32.1366  -35.1721 C   0  0  0  0  0  0  0  0  0  0  0  0
   -4.8719  -32.5551  -35.3726 C   0  0  0  0  0  0  0  0  0  0  0  0
   -2.7781  -32.3013  -32.3658 N   0  0  0  0  0  0  0  0  0  0  0  0
   -4.0197  -32.1242  -34.2990 N   0  0  0  0  0  0  0  0  0  0  0  0
   -3.8800  -34.1505  -33.1637 O   0  0  0  0  0  0  0  0  0  0  0  0
  -21.2312  -22.4299  -39.7550 H   0  0  0  0  0  0  0  0  0  0  0  0
  -22.6869  -23.1979  -39.0997 H   0  0  0  0  0  0  0  0  0  0  0  0
  -21.9663  -23.7881  -40.6116 H   0  0  0  0  0  0  0  0  0  0  0  0
  -21.3593  -25.3123  -38.7362 H   0  0  0  0  0  0  0  0  0  0  0  0
  -19.9331  -24.5046  -39.3780 H   0  0  0  0  0  0  0  0  0  0  0  0
  -20.0265  -22.8328  -37.5435 H   0  0  0  0  0  0  0  0  0  0  0  0
  -21.4272  -23.6521  -36.8586 H   0  0  0  0  0  0  0  0  0  0  0  0
  -19.5593  -24.4817  -35.5931 H   0  0  0  0  0  0  0  0  0  0  0  0
  -19.9406  -25.7696  -36.7230 H   0  0  0  0  0  0  0  0  0  0  0  0
  -18.1082  -25.2693  -38.1482 H   0  0  0  0  0  0  0  0  0  0  0  0
  -17.8469  -23.6951  -37.4289 H   0  0  0  0  0  0  0  0  0  0  0  0
  -17.1153  -24.7801  -35.3007 H   0  0  0  0  0  0  0  0  0  0  0  0
  -17.3199  -26.3541  -36.0239 H   0  0  0  0  0  0  0  0  0  0  0  0
  -15.5947  -25.8056  -37.7430 H   0  0  0  0  0  0  0  0  0  0  0  0
  -15.3518  -24.2391  -37.0158 H   0  0  0  0  0  0  0  0  0  0  0  0
  -14.6963  -25.4087  -34.8552 H   0  0  0  0  0  0  0  0  0  0  0  0
  -14.7445  -26.9322  -35.7154 H   0  0  0  0  0  0  0  0  0  0  0  0
  -12.9005  -24.5951  -36.4306 H   0  0  0  0  0  0  0  0  0  0  0  0
  -12.9869  -26.1333  -37.2698 H   0  0  0  0  0  0  0  0  0  0  0  0
  -12.2520  -25.8619  -34.3079 H   0  0  0  0  0  0  0  0  0  0  0  0
  -12.2366  -27.3493  -35.2592 H   0  0  0  0  0  0  0  0  0  0  0  0
  -10.5099  -26.2977  -36.7855 H   0  0  0  0  0  0  0  0  0  0  0  0
  -10.4951  -24.8736  -35.7425 H   0  0  0  0  0  0  0  0  0  0  0  0
   -9.9655  -26.5480  -33.7945 H   0  0  0  0  0  0  0  0  0  0  0  0
   -8.6731  -26.1302  -34.9216 H   0  0  0  0  0  0  0  0  0  0  0  0
   -9.4901  -28.2369  -36.2848 H   0  0  0  0  0  0  0  0  0  0  0  0
  -10.3189  -28.6901  -34.7936 H   0  0  0  0  0  0  0  0  0  0  0  0
   -8.1470  -28.5610  -33.5479 H   0  0  0  0  0  0  0  0  0  0  0  0
   -7.3258  -28.0997  -35.0415 H   0  0  0  0  0  0  0  0  0  0  0  0
   -8.4451  -30.3558  -35.9768 H   0  0  0  0  0  0  0  0  0  0  0  0
   -8.5607  -30.7653  -34.2752 H   0  0  0  0  0  0  0  0  0  0  0  0
   -6.0909  -30.3233  -34.0243 H   0  0  0  0  0  0  0  0  0  0  0  0
   -5.9868  -30.0997  -35.7593 H   0  0  0  0  0  0  0  0  0  0  0  0
   -6.9112  -32.4515  -36.0452 H   0  0  0  0  0  0  0  0  0  0  0  0
   -6.7374  -32.6823  -34.3156 H   0  0  0  0  0  0  0  0  0  0  0  0
   -4.4794  -32.1048  -36.2901 H   0  0  0  0  0  0  0  0  0  0  0  0
   -4.7726  -33.6402  -35.4665 H   0  0  0  0  0  0  0  0  0  0  0  0
   -2.3826  -32.7757  -31.5613 H   0  0  0  0  0  0  0  0  0  0  0  0
   -2.5537  -31.3185  -32.4802 H   0  0  0  0  0  0  0  0  0  0  0  0
   -3.7141  -31.1522  -34.2880 H   0  0  0  0  0  0  0  0  0  0  0  0
  1 20  1  0  0  0  0
  1 21  1  0  0  0  0
  1 22  2  0  0  0  0
  2  3  1  0  0  0  0
  3  4  1  0  0  0  0
  4  5  1  0  0  0  0
  5  6  1  0  0  0  0
  6  7  1  0  0  0  0
  7  8  1  0  0  0  0
  8  9  1  0  0  0  0
  9 10  1  0  0  0  0
 10 11  1  0  0  0  0
 11 12  1  0  0  0  0
 12 13  1  0  0  0  0
 13 14  1  0  0  0  0
 14 15  1  0  0  0  0
 15 16  1  0  0  0  0
 16 17  1  0  0  0  0
 17 18  1  0  0  0  0
 18 19  1  0  0  0  0
 19 21  1  0  0  0  0
  2 23  1  0  0  0  0
  2 24  1  0  0  0  0
  2 25  1  0  0  0  0
  3 26  1  0  0  0  0
  3 27  1  0  0  0  0
  4 28  1  0  0  0  0
  4 29  1  0  0  0  0
  5 30  1  0  0  0  0
  5 31  1  0  0  0  0
  6 32  1  0  0  0  0
  6 33  1  0  0  0  0
  7 34  1  0  0  0  0
  7 35  1  0  0  0  0
  8 36  1  0  0  0  0
  8 37  1  0  0  0  0
  9 38  1  0  0  0  0
  9 39  1  0  0  0  0
 10 40  1  0  0  0  0
 10 41  1  0  0  0  0
 11 42  1  0  0  0  0
 11 43  1  0  0  0  0
 12 44  1  0  0  0  0
 12 45  1  0  0  0  0
 13 46  1  0  0  0  0
 13 47  1  0  0  0  0
 14 48  1  0  0  0  0
 14 49  1  0  0  0  0
 15 50  1  0  0  0  0
 15 51  1  0  0  0  0
 16 52  1  0  0  0  0
 16 53  1  0  0  0  0
 17 54  1  0  0  0  0
 17 55  1  0  0  0  0
 18 56  1  0  0  0  0
 18 57  1  0  0  0  0
 19 58  1  0  0  0  0
 19 59  1  0  0  0  0
 20 60  1  0  0  0  0
 20 61  1  0  0  0  0
 21 62  1  0  0  0  0
M  END
> <Name>
IA_104.cdx

> <SourceTag>
IA_104

> <Gold.Version>
5.2

> <Gold.Id.Protein>
6HGV|6HGV_protein|mol2

> <Gold.Goldscore.Fitness>
69.9149

> <Gold.Goldscore.Internal.Vdw>
-7.1576

> <Gold.Goldscore.Internal.Torsion>
-4.6918

> <Gold.Goldscore.External.Vdw>
54.3950

> <Gold.Goldscore.Internal.HBond>
0.0000

> <Gold.Goldscore.External.HBond>
0.0000

> <Gold.Goldscore.Internal.Correction>
-6.9712

> <Gold.Goldscore.Internal.Vdw.Weighted>
-7.1576

> <Gold.Goldscore.Internal.Torsion.Weighted>
-4.6918

> <Gold.Goldscore.External.Vdw.Weighted>
74.7931

> <Gold.Goldscore.Internal.HBond.Weighted>
0.0000

> <Gold.Goldscore.External.HBond.Weighted>
0.0000

> <Gold.Goldscore.Internal.Correction.Weighted>
-6.9712

> <Gold.Protein.RotatedTorsions>
[ 3781 1176 1175 1172 ] final  142.10 input   60.00 | X-H torsion
[ 3847 1247 1246 1244 ] final  119.88 input   60.00 | X-H torsion
[ 4507 1931 1930 1928 ] final   96.65 input   60.00 | X-H torsion
[ 3677 1070 1069 1066 ] final  -94.57 input   60.00 | X-H torsion
[ 3525  925  924  922 ] final    9.73 input   59.99 | X-H torsion
[ 4531 1957 1955 1953 ] final  -52.27 input   60.00 | X-H torsion

> <Gold.Protein.ActiveResidues>
 PHE267  PRO268  MET310  ASP335  TRP336  MET339  TYR343  THR360  PRO361  ILE363
 PRO371  SER374  ILE375  ASN378  PHE381  TYR383  GLN384  PHE387  LEU408  LEU417
 MET419  LEU428  TYR466  MET469  ASN472  ASP496  VAL498  LEU499  MET503  HIS524
 TRP525

> <Gold.Protein.RotatedAtoms>
   -3.4995  -29.5774  -30.5968 H   0  0  0  0  0  0  0  0  0  0  0  0  # atno 3525 bound_to 925
  -11.8148  -23.7865  -31.3961 H   0  0  0  0  0  0  0  0  0  0  0  0  # atno 3677 bound_to 1070
   -9.5650  -36.8677  -32.4563 H   0  0  0  0  0  0  0  0  0  0  0  0  # atno 3781 bound_to 1176
  -14.3151  -28.2911  -37.7656 H   0  0  0  0  0  0  0  0  0  0  0  0  # atno 3847 bound_to 1247
  -12.4433  -24.1746  -39.0639 H   0  0  0  0  0  0  0  0  0  0  0  0  # atno 4507 bound_to 1931
   -2.1021  -32.1982  -36.8273 H   0  0  0  0  0  0  0  0  0  0  0  0  # atno 4531 bound_to 1957
  -10.8319  -37.3788  -33.3404 LP  0  0  0  0  0  0  0  0  0  0  0  0  # atno 5205 bound_to 1176
   -9.7171  -36.3867  -34.0033 LP  0  0  0  0  0  0  0  0  0  0  0  0  # atno 5206 bound_to 1176
  -15.7128  -28.7190  -37.0506 LP  0  0  0  0  0  0  0  0  0  0  0  0  # atno 5215 bound_to 1247
  -15.5426  -27.2256  -37.6887 LP  0  0  0  0  0  0  0  0  0  0  0  0  # atno 5216 bound_to 1247
  -13.4844  -25.3837  -39.3836 LP  0  0  0  0  0  0  0  0  0  0  0  0  # atno 5217 bound_to 1931
  -13.2714  -24.1786  -40.4647 LP  0  0  0  0  0  0  0  0  0  0  0  0  # atno 5218 bound_to 1931
  -11.2787  -22.3520  -30.8456 LP  0  0  0  0  0  0  0  0  0  0  0  0  # atno 5224 bound_to 1070
  -12.7615  -22.8896  -30.4228 LP  0  0  0  0  0  0  0  0  0  0  0  0  # atno 5225 bound_to 1070

$$$$
IA_104.cdx|SeH_inactivess_minimized|sdf|6|dock5
  -GOLD-   4172118343D 1   1.00000     0.00000

 62 61  0  0  0  0  0  0  0  0  1 V2000
   -3.2368  -32.2518  -33.6433 C   0  0  0  0  0  0  0  0  0  0  0  0
  -21.9732  -23.4501  -39.1011 C   0  0  0  0  0  0  0  0  0  0  0  0
  -21.0999  -24.1221  -38.0527 C   0  0  0  0  0  0  0  0  0  0  0  0
  -19.6005  -23.9756  -38.3239 C   0  0  0  0  0  0  0  0  0  0  0  0
  -18.7299  -24.7507  -37.3315 C   0  0  0  0  0  0  0  0  0  0  0  0
  -17.2283  -24.6024  -37.5991 C   0  0  0  0  0  0  0  0  0  0  0  0
  -16.3050  -25.3325  -36.6181 C   0  0  0  0  0  0  0  0  0  0  0  0
  -14.8066  -25.2306  -36.9196 C   0  0  0  0  0  0  0  0  0  0  0  0
  -13.8835  -25.9607  -35.9386 C   0  0  0  0  0  0  0  0  0  0  0  0
  -12.4098  -25.5446  -35.9779 C   0  0  0  0  0  0  0  0  0  0  0  0
  -11.4990  -26.4539  -35.1506 C   0  0  0  0  0  0  0  0  0  0  0  0
  -10.0414  -25.9936  -35.2251 C   0  0  0  0  0  0  0  0  0  0  0  0
   -9.1287  -26.9013  -34.3988 C   0  0  0  0  0  0  0  0  0  0  0  0
   -8.8987  -28.2430  -35.0963 C   0  0  0  0  0  0  0  0  0  0  0  0
   -7.8179  -29.0611  -34.3860 C   0  0  0  0  0  0  0  0  0  0  0  0
   -7.2799  -30.1717  -35.2904 C   0  0  0  0  0  0  0  0  0  0  0  0
   -6.3949  -31.1823  -34.5546 C   0  0  0  0  0  0  0  0  0  0  0  0
   -5.8258  -32.3202  -35.4106 C   0  0  0  0  0  0  0  0  0  0  0  0
   -5.1878  -33.4595  -34.6215 C   0  0  0  0  0  0  0  0  0  0  0  0
   -2.6795  -31.9268  -32.4196 N   0  0  0  0  0  0  0  0  0  0  0  0
   -4.4086  -32.9921  -33.5084 N   0  0  0  0  0  0  0  0  0  0  0  0
   -2.7357  -31.9144  -34.7146 O   0  0  0  0  0  0  0  0  0  0  0  0
  -21.7866  -22.3715  -39.1098 H   0  0  0  0  0  0  0  0  0  0  0  0
  -23.0352  -23.6085  -38.8886 H   0  0  0  0  0  0  0  0  0  0  0  0
  -21.7602  -23.8305  -40.1045 H   0  0  0  0  0  0  0  0  0  0  0  0
  -21.3421  -23.7189  -37.0626 H   0  0  0  0  0  0  0  0  0  0  0  0
  -21.3452  -25.1907  -38.0281 H   0  0  0  0  0  0  0  0  0  0  0  0
  -19.3982  -24.3392  -39.3388 H   0  0  0  0  0  0  0  0  0  0  0  0
  -19.3370  -22.9119  -38.3086 H   0  0  0  0  0  0  0  0  0  0  0  0
  -18.9531  -24.4387  -36.3059 H   0  0  0  0  0  0  0  0  0  0  0  0
  -18.9811  -25.8169  -37.3922 H   0  0  0  0  0  0  0  0  0  0  0  0
  -17.0208  -24.9461  -38.6194 H   0  0  0  0  0  0  0  0  0  0  0  0
  -16.9705  -23.5358  -37.5839 H   0  0  0  0  0  0  0  0  0  0  0  0
  -16.4993  -24.9494  -35.6092 H   0  0  0  0  0  0  0  0  0  0  0  0
  -16.5797  -26.3936  -36.5840 H   0  0  0  0  0  0  0  0  0  0  0  0
  -14.6308  -25.6101  -37.9333 H   0  0  0  0  0  0  0  0  0  0  0  0
  -14.5131  -24.1744  -36.9502 H   0  0  0  0  0  0  0  0  0  0  0  0
  -14.2678  -25.8015  -34.9231 H   0  0  0  0  0  0  0  0  0  0  0  0
  -13.9450  -27.0408  -36.1162 H   0  0  0  0  0  0  0  0  0  0  0  0
  -12.3017  -24.5065  -35.6438 H   0  0  0  0  0  0  0  0  0  0  0  0
  -12.0806  -25.5661  -37.0245 H   0  0  0  0  0  0  0  0  0  0  0  0
  -11.8200  -26.4553  -34.1031 H   0  0  0  0  0  0  0  0  0  0  0  0
  -11.5776  -27.4845  -35.5171 H   0  0  0  0  0  0  0  0  0  0  0  0
   -9.7089  -25.9925  -36.2703 H   0  0  0  0  0  0  0  0  0  0  0  0
   -9.9630  -24.9624  -34.8595 H   0  0  0  0  0  0  0  0  0  0  0  0
   -9.5764  -27.0721  -33.4122 H   0  0  0  0  0  0  0  0  0  0  0  0
   -8.1657  -26.4027  -34.2350 H   0  0  0  0  0  0  0  0  0  0  0  0
   -8.6025  -28.0695  -36.1380 H   0  0  0  0  0  0  0  0  0  0  0  0
   -9.8363  -28.8116  -35.1168 H   0  0  0  0  0  0  0  0  0  0  0  0
   -8.2323  -29.5006  -33.4708 H   0  0  0  0  0  0  0  0  0  0  0  0
   -7.0028  -28.3928  -34.0866 H   0  0  0  0  0  0  0  0  0  0  0  0
   -6.7315  -29.7336  -36.1322 H   0  0  0  0  0  0  0  0  0  0  0  0
   -8.1254  -30.7183  -35.7272 H   0  0  0  0  0  0  0  0  0  0  0  0
   -6.9728  -31.6092  -33.7256 H   0  0  0  0  0  0  0  0  0  0  0  0
   -5.5553  -30.6467  -34.0936 H   0  0  0  0  0  0  0  0  0  0  0  0
   -5.0760  -31.8915  -36.0880 H   0  0  0  0  0  0  0  0  0  0  0  0
   -6.6158  -32.7298  -36.0504 H   0  0  0  0  0  0  0  0  0  0  0  0
   -4.5096  -34.0249  -35.2688 H   0  0  0  0  0  0  0  0  0  0  0  0
   -5.9386  -34.1562  -34.2380 H   0  0  0  0  0  0  0  0  0  0  0  0
   -1.8231  -31.3878  -32.3503 H   0  0  0  0  0  0  0  0  0  0  0  0
   -3.1143  -32.2187  -31.5506 H   0  0  0  0  0  0  0  0  0  0  0  0
   -4.7315  -33.2147  -32.5680 H   0  0  0  0  0  0  0  0  0  0  0  0
  1 20  1  0  0  0  0
  1 21  1  0  0  0  0
  1 22  2  0  0  0  0
  2  3  1  0  0  0  0
  3  4  1  0  0  0  0
  4  5  1  0  0  0  0
  5  6  1  0  0  0  0
  6  7  1  0  0  0  0
  7  8  1  0  0  0  0
  8  9  1  0  0  0  0
  9 10  1  0  0  0  0
 10 11  1  0  0  0  0
 11 12  1  0  0  0  0
 12 13  1  0  0  0  0
 13 14  1  0  0  0  0
 14 15  1  0  0  0  0
 15 16  1  0  0  0  0
 16 17  1  0  0  0  0
 17 18  1  0  0  0  0
 18 19  1  0  0  0  0
 19 21  1  0  0  0  0
  2 23  1  0  0  0  0
  2 24  1  0  0  0  0
  2 25  1  0  0  0  0
  3 26  1  0  0  0  0
  3 27  1  0  0  0  0
  4 28  1  0  0  0  0
  4 29  1  0  0  0  0
  5 30  1  0  0  0  0
  5 31  1  0  0  0  0
  6 32  1  0  0  0  0
  6 33  1  0  0  0  0
  7 34  1  0  0  0  0
  7 35  1  0  0  0  0
  8 36  1  0  0  0  0
  8 37  1  0  0  0  0
  9 38  1  0  0  0  0
  9 39  1  0  0  0  0
 10 40  1  0  0  0  0
 10 41  1  0  0  0  0
 11 42  1  0  0  0  0
 11 43  1  0  0  0  0
 12 44  1  0  0  0  0
 12 45  1  0  0  0  0
 13 46  1  0  0  0  0
 13 47  1  0  0  0  0
 14 48  1  0  0  0  0
 14 49  1  0  0  0  0
 15 50  1  0  0  0  0
 15 51  1  0  0  0  0
 16 52  1  0  0  0  0
 16 53  1  0  0  0  0
 17 54  1  0  0  0  0
 17 55  1  0  0  0  0
 18 56  1  0  0  0  0
 18 57  1  0  0  0  0
 19 58  1  0  0  0  0
 19 59  1  0  0  0  0
 20 60  1  0  0  0  0
 20 61  1  0  0  0  0
 21 62  1  0  0  0  0
M  END
> <Name>
IA_104.cdx

> <SourceTag>
IA_104

> <Gold.Version>
5.2

> <Gold.Id.Protein>
6HGV|6HGV_protein|mol2

> <Gold.Goldscore.Fitness>
69.3484

> <Gold.Goldscore.Internal.Vdw>
-6.0846

> <Gold.Goldscore.Internal.Torsion>
-3.9260

> <Gold.Goldscore.External.Vdw>
52.6457

> <Gold.Goldscore.Internal.HBond>
0.0000

> <Gold.Goldscore.External.HBond>
0.0000

> <Gold.Goldscore.Internal.Correction>
-6.9712

> <Gold.Goldscore.Internal.Vdw.Weighted>
-6.0846

> <Gold.Goldscore.Internal.Torsion.Weighted>
-3.9260

> <Gold.Goldscore.External.Vdw.Weighted>
72.3879

> <Gold.Goldscore.Internal.HBond.Weighted>
0.0000

> <Gold.Goldscore.External.HBond.Weighted>
0.0000

> <Gold.Goldscore.Internal.Correction.Weighted>
-6.9712

> <Gold.Protein.RotatedTorsions>
[ 3781 1176 1175 1172 ] final -122.12 input   60.00 | X-H torsion
[ 3847 1247 1246 1244 ] final   12.82 input   60.00 | X-H torsion
[ 4507 1931 1930 1928 ] final   94.94 input   60.00 | X-H torsion
[ 3677 1070 1069 1066 ] final -108.35 input   60.00 | X-H torsion
[ 3525  925  924  922 ] final   18.85 input   59.99 | X-H torsion
[ 4531 1957 1955 1953 ] final  119.37 input   60.00 | X-H torsion

> <Gold.Protein.ActiveResidues>
 PHE267  PRO268  MET310  ASP335  TRP336  MET339  TYR343  THR360  PRO361  ILE363
 PRO371  SER374  ILE375  ASN378  PHE381  TYR383  GLN384  PHE387  LEU408  LEU417
 MET419  LEU428  TYR466  MET469  ASN472  ASP496  VAL498  LEU499  MET503  HIS524
 TRP525

> <Gold.Protein.RotatedAtoms>
   -3.3926  -29.6152  -30.6932 H   0  0  0  0  0  0  0  0  0  0  0  0  # atno 3525 bound_to 925
  -11.6162  -23.6908  -31.4392 H   0  0  0  0  0  0  0  0  0  0  0  0  # atno 3677 bound_to 1070
   -9.4476  -36.3142  -33.7249 H   0  0  0  0  0  0  0  0  0  0  0  0  # atno 3781 bound_to 1176
  -15.5382  -28.8361  -37.0771 H   0  0  0  0  0  0  0  0  0  0  0  0  # atno 3847 bound_to 1247
  -12.4472  -24.1954  -39.0458 H   0  0  0  0  0  0  0  0  0  0  0  0  # atno 4507 bound_to 1931
   -2.3885  -34.0436  -36.8048 H   0  0  0  0  0  0  0  0  0  0  0  0  # atno 4531 bound_to 1957
   -9.8687  -37.1017  -32.3645 LP  0  0  0  0  0  0  0  0  0  0  0  0  # atno 5205 bound_to 1176
  -10.7985  -37.2212  -33.7016 LP  0  0  0  0  0  0  0  0  0  0  0  0  # atno 5206 bound_to 1176
  -15.7153  -27.3025  -37.5915 LP  0  0  0  0  0  0  0  0  0  0  0  0  # atno 5215 bound_to 1247
  -14.3085  -28.0932  -37.8412 LP  0  0  0  0  0  0  0  0  0  0  0  0  # atno 5216 bound_to 1247
  -13.4985  -25.3835  -39.4079 LP  0  0  0  0  0  0  0  0  0  0  0  0  # atno 5217 bound_to 1931
  -13.2534  -24.1579  -40.4588 LP  0  0  0  0  0  0  0  0  0  0  0  0  # atno 5218 bound_to 1931
  -11.4283  -22.2470  -30.7123 LP  0  0  0  0  0  0  0  0  0  0  0  0  # atno 5224 bound_to 1070
  -12.8119  -23.0909  -30.5126 LP  0  0  0  0  0  0  0  0  0  0  0  0  # atno 5225 bound_to 1070

$$$$
IA_104.cdx|SeH_inactivess_minimized|sdf|6|dock6
  -GOLD-   4172118343D 1   1.00000     0.00000

 62 61  0  0  0  0  0  0  0  0  1 V2000
   -3.9725  -33.8705  -32.7459 C   0  0  0  0  0  0  0  0  0  0  0  0
  -22.4271  -23.1573  -38.9387 C   0  0  0  0  0  0  0  0  0  0  0  0
  -21.5516  -24.0858  -38.1112 C   0  0  0  0  0  0  0  0  0  0  0  0
  -20.0594  -23.7562  -38.2001 C   0  0  0  0  0  0  0  0  0  0  0  0
  -19.1857  -24.6832  -37.3512 C   0  0  0  0  0  0  0  0  0  0  0  0
  -17.6842  -24.4642  -37.5657 C   0  0  0  0  0  0  0  0  0  0  0  0
  -16.7606  -25.2094  -36.5963 C   0  0  0  0  0  0  0  0  0  0  0  0
  -15.2697  -25.1768  -36.9465 C   0  0  0  0  0  0  0  0  0  0  0  0
  -14.3463  -25.9220  -35.9772 C   0  0  0  0  0  0  0  0  0  0  0  0
  -12.8830  -26.0427  -36.4137 C   0  0  0  0  0  0  0  0  0  0  0  0
  -11.9784  -26.6590  -35.3447 C   0  0  0  0  0  0  0  0  0  0  0  0
  -10.6804  -27.1906  -35.9569 C   0  0  0  0  0  0  0  0  0  0  0  0
   -9.7783  -27.8153  -34.8912 C   0  0  0  0  0  0  0  0  0  0  0  0
   -8.8069  -28.8243  -35.5060 C   0  0  0  0  0  0  0  0  0  0  0  0
   -7.6758  -29.1703  -34.5350 C   0  0  0  0  0  0  0  0  0  0  0  0
   -6.7055  -30.1795  -35.1520 C   0  0  0  0  0  0  0  0  0  0  0  0
   -5.4792  -30.4593  -34.2780 C   0  0  0  0  0  0  0  0  0  0  0  0
   -4.4694  -31.4645  -34.8451 C   0  0  0  0  0  0  0  0  0  0  0  0
   -3.2934  -31.7806  -33.9260 C   0  0  0  0  0  0  0  0  0  0  0  0
   -4.3306  -34.3255  -31.4895 N   0  0  0  0  0  0  0  0  0  0  0  0
   -3.6899  -32.5069  -32.7514 N   0  0  0  0  0  0  0  0  0  0  0  0
   -3.9176  -34.6056  -33.7303 O   0  0  0  0  0  0  0  0  0  0  0  0
  -22.2891  -22.1215  -38.6125 H   0  0  0  0  0  0  0  0  0  0  0  0
  -23.4860  -23.4102  -38.8250 H   0  0  0  0  0  0  0  0  0  0  0  0
  -22.1714  -23.2060  -40.0013 H   0  0  0  0  0  0  0  0  0  0  0  0
  -21.8787  -24.0602  -37.0652 H   0  0  0  0  0  0  0  0  0  0  0  0
  -21.7017  -25.1130  -38.4647 H   0  0  0  0  0  0  0  0  0  0  0  0
  -19.7524  -23.8359  -39.2501 H   0  0  0  0  0  0  0  0  0  0  0  0
  -19.9057  -22.7128  -37.9020 H   0  0  0  0  0  0  0  0  0  0  0  0
  -19.4265  -24.5654  -36.2895 H   0  0  0  0  0  0  0  0  0  0  0  0
  -19.4159  -25.7250  -37.6070 H   0  0  0  0  0  0  0  0  0  0  0  0
  -17.4348  -24.7455  -38.5956 H   0  0  0  0  0  0  0  0  0  0  0  0
  -17.4692  -23.3908  -37.4877 H   0  0  0  0  0  0  0  0  0  0  0  0
  -16.9068  -24.7955  -35.5915 H   0  0  0  0  0  0  0  0  0  0  0  0
  -17.0772  -26.2571  -36.5281 H   0  0  0  0  0  0  0  0  0  0  0  0
  -15.1421  -25.5864  -37.9557 H   0  0  0  0  0  0  0  0  0  0  0  0
  -14.9344  -24.1347  -37.0117 H   0  0  0  0  0  0  0  0  0  0  0  0
  -14.3837  -25.4110  -35.0068 H   0  0  0  0  0  0  0  0  0  0  0  0
  -14.7410  -26.9295  -35.8005 H   0  0  0  0  0  0  0  0  0  0  0  0
  -12.4950  -25.0611  -36.7087 H   0  0  0  0  0  0  0  0  0  0  0  0
  -12.8497  -26.6691  -37.3141 H   0  0  0  0  0  0  0  0  0  0  0  0
  -11.7337  -25.9110  -34.5824 H   0  0  0  0  0  0  0  0  0  0  0  0
  -12.5085  -27.4762  -34.8413 H   0  0  0  0  0  0  0  0  0  0  0  0
  -10.9148  -27.9389  -36.7237 H   0  0  0  0  0  0  0  0  0  0  0  0
  -10.1475  -26.3718  -36.4557 H   0  0  0  0  0  0  0  0  0  0  0  0
  -10.3953  -28.3138  -34.1338 H   0  0  0  0  0  0  0  0  0  0  0  0
   -9.2133  -27.0264  -34.3800 H   0  0  0  0  0  0  0  0  0  0  0  0
   -8.3841  -28.4113  -36.4299 H   0  0  0  0  0  0  0  0  0  0  0  0
   -9.3499  -29.7375  -35.7785 H   0  0  0  0  0  0  0  0  0  0  0  0
   -8.0984  -29.5837  -33.6115 H   0  0  0  0  0  0  0  0  0  0  0  0
   -7.1418  -28.2518  -34.2665 H   0  0  0  0  0  0  0  0  0  0  0  0
   -6.3905  -29.8351  -36.1437 H   0  0  0  0  0  0  0  0  0  0  0  0
   -7.2310  -31.1299  -35.3107 H   0  0  0  0  0  0  0  0  0  0  0  0
   -5.8255  -30.8102  -33.2980 H   0  0  0  0  0  0  0  0  0  0  0  0
   -4.9545  -29.5135  -34.0924 H   0  0  0  0  0  0  0  0  0  0  0  0
   -4.0851  -31.0609  -35.7907 H   0  0  0  0  0  0  0  0  0  0  0  0
   -4.9833  -32.3987  -35.0990 H   0  0  0  0  0  0  0  0  0  0  0  0
   -2.8302  -30.8499  -33.5828 H   0  0  0  0  0  0  0  0  0  0  0  0
   -2.5243  -32.3646  -34.4394 H   0  0  0  0  0  0  0  0  0  0  0  0
   -4.5653  -35.2979  -31.3217 H   0  0  0  0  0  0  0  0  0  0  0  0
   -4.3680  -33.6964  -30.6943 H   0  0  0  0  0  0  0  0  0  0  0  0
   -3.7686  -31.9957  -31.8735 H   0  0  0  0  0  0  0  0  0  0  0  0
  1 20  1  0  0  0  0
  1 21  1  0  0  0  0
  1 22  2  0  0  0  0
  2  3  1  0  0  0  0
  3  4  1  0  0  0  0
  4  5  1  0  0  0  0
  5  6  1  0  0  0  0
  6  7  1  0  0  0  0
  7  8  1  0  0  0  0
  8  9  1  0  0  0  0
  9 10  1  0  0  0  0
 10 11  1  0  0  0  0
 11 12  1  0  0  0  0
 12 13  1  0  0  0  0
 13 14  1  0  0  0  0
 14 15  1  0  0  0  0
 15 16  1  0  0  0  0
 16 17  1  0  0  0  0
 17 18  1  0  0  0  0
 18 19  1  0  0  0  0
 19 21  1  0  0  0  0
  2 23  1  0  0  0  0
  2 24  1  0  0  0  0
  2 25  1  0  0  0  0
  3 26  1  0  0  0  0
  3 27  1  0  0  0  0
  4 28  1  0  0  0  0
  4 29  1  0  0  0  0
  5 30  1  0  0  0  0
  5 31  1  0  0  0  0
  6 32  1  0  0  0  0
  6 33  1  0  0  0  0
  7 34  1  0  0  0  0
  7 35  1  0  0  0  0
  8 36  1  0  0  0  0
  8 37  1  0  0  0  0
  9 38  1  0  0  0  0
  9 39  1  0  0  0  0
 10 40  1  0  0  0  0
 10 41  1  0  0  0  0
 11 42  1  0  0  0  0
 11 43  1  0  0  0  0
 12 44  1  0  0  0  0
 12 45  1  0  0  0  0
 13 46  1  0  0  0  0
 13 47  1  0  0  0  0
 14 48  1  0  0  0  0
 14 49  1  0  0  0  0
 15 50  1  0  0  0  0
 15 51  1  0  0  0  0
 16 52  1  0  0  0  0
 16 53  1  0  0  0  0
 17 54  1  0  0  0  0
 17 55  1  0  0  0  0
 18 56  1  0  0  0  0
 18 57  1  0  0  0  0
 19 58  1  0  0  0  0
 19 59  1  0  0  0  0
 20 60  1  0  0  0  0
 20 61  1  0  0  0  0
 21 62  1  0  0  0  0
M  END
> <Name>
IA_104.cdx

> <SourceTag>
IA_104

> <Gold.Version>
5.2

> <Gold.Id.Protein>
6HGV|6HGV_protein|mol2

> <Gold.Goldscore.Fitness>
68.9972

> <Gold.Goldscore.Internal.Vdw>
-5.2007

> <Gold.Goldscore.Internal.Torsion>
-3.7758

> <Gold.Goldscore.External.Vdw>
51.6382

> <Gold.Goldscore.Internal.HBond>
0.0000

> <Gold.Goldscore.External.HBond>
0.0000

> <Gold.Goldscore.Internal.Correction>
-6.9712

> <Gold.Goldscore.Internal.Vdw.Weighted>
-5.2007

> <Gold.Goldscore.Internal.Torsion.Weighted>
-3.7758

> <Gold.Goldscore.External.Vdw.Weighted>
71.0025

> <Gold.Goldscore.Internal.HBond.Weighted>
0.0000

> <Gold.Goldscore.External.HBond.Weighted>
0.0000

> <Gold.Goldscore.Internal.Correction.Weighted>
-6.9712

> <Gold.Protein.RotatedTorsions>
[ 3781 1176 1175 1172 ] final -147.15 input   60.00 | X-H torsion
[ 3847 1247 1246 1244 ] final   75.13 input   60.00 | X-H torsion
[ 4507 1931 1930 1928 ] final  -53.34 input   60.00 | X-H torsion
[ 3677 1070 1069 1066 ] final -110.97 input   60.00 | X-H torsion
[ 3525  925  924  922 ] final   50.38 input   59.99 | X-H torsion
[ 4531 1957 1955 1953 ] final   63.69 input   60.00 | X-H torsion

> <Gold.Protein.ActiveResidues>
 PHE267  PRO268  MET310  ASP335  TRP336  MET339  TYR343  THR360  PRO361  ILE363
 PRO371  SER374  ILE375  ASN378  PHE381  TYR383  GLN384  PHE387  LEU408  LEU417
 MET419  LEU428  TYR466  MET469  ASN472  ASP496  VAL498  LEU499  MET503  HIS524
 TRP525

> <Gold.Protein.RotatedAtoms>
   -2.9490  -29.7925  -30.8683 H   0  0  0  0  0  0  0  0  0  0  0  0  # atno 3525 bound_to 925
  -11.5804  -23.6680  -31.4438 H   0  0  0  0  0  0  0  0  0  0  0  0  # atno 3677 bound_to 1070
   -9.2774  -36.3383  -33.3574 H   0  0  0  0  0  0  0  0  0  0  0  0  # atno 3781 bound_to 1176
  -14.6369  -28.8325  -37.4322 H   0  0  0  0  0  0  0  0  0  0  0  0  # atno 3847 bound_to 1247
  -13.6621  -25.2745  -39.8227 H   0  0  0  0  0  0  0  0  0  0  0  0  # atno 4507 bound_to 1931
   -3.0369  -33.4721  -36.6716 H   0  0  0  0  0  0  0  0  0  0  0  0  # atno 4531 bound_to 1957
  -10.2153  -37.3036  -32.4428 LP  0  0  0  0  0  0  0  0  0  0  0  0  # atno 5205 bound_to 1176
  -10.6235  -36.9951  -33.9935 LP  0  0  0  0  0  0  0  0  0  0  0  0  # atno 5206 bound_to 1176
  -16.0625  -28.1002  -37.1501 LP  0  0  0  0  0  0  0  0  0  0  0  0  # atno 5215 bound_to 1247
  -14.8689  -27.2991  -37.9250 LP  0  0  0  0  0  0  0  0  0  0  0  0  # atno 5216 bound_to 1247
  -12.9427  -23.8820  -40.2601 LP  0  0  0  0  0  0  0  0  0  0  0  0  # atno 5217 bound_to 1931
  -12.5858  -24.5727  -38.8241 LP  0  0  0  0  0  0  0  0  0  0  0  0  # atno 5218 bound_to 1931
  -11.4603  -22.2319  -30.6880 LP  0  0  0  0  0  0  0  0  0  0  0  0  # atno 5224 bound_to 1070
  -12.8160  -23.1289  -30.5323 LP  0  0  0  0  0  0  0  0  0  0  0  0  # atno 5225 bound_to 1070

$$$$
IA_104.cdx|SeH_inactivess_minimized|sdf|6|dock1
  -GOLD-   4172118323D 1   1.00000     0.00000

 62 61  0  0  0  0  0  0  0  0  1 V2000
   -6.7940  -34.3989  -34.7173 C   0  0  0  0  0  0  0  0  0  0  0  0
  -22.0897  -23.0012  -37.0923 C   0  0  0  0  0  0  0  0  0  0  0  0
  -21.6484  -23.7594  -38.3347 C   0  0  0  0  0  0  0  0  0  0  0  0
  -20.1373  -23.7090  -38.5746 C   0  0  0  0  0  0  0  0  0  0  0  0
  -19.3309  -24.4335  -37.4938 C   0  0  0  0  0  0  0  0  0  0  0  0
  -17.8209  -24.4222  -37.7555 C   0  0  0  0  0  0  0  0  0  0  0  0
  -16.9655  -25.1776  -36.7330 C   0  0  0  0  0  0  0  0  0  0  0  0
  -15.4679  -25.2489  -37.0476 C   0  0  0  0  0  0  0  0  0  0  0  0
  -14.6126  -26.0042  -36.0251 C   0  0  0  0  0  0  0  0  0  0  0  0
  -13.1450  -26.2126  -36.4112 C   0  0  0  0  0  0  0  0  0  0  0  0
  -12.3848  -27.1213  -35.4430 C   0  0  0  0  0  0  0  0  0  0  0  0
  -10.9450  -27.3470  -35.9101 C   0  0  0  0  0  0  0  0  0  0  0  0
  -10.1748  -28.2327  -34.9294 C   0  0  0  0  0  0  0  0  0  0  0  0
   -8.9545  -28.8705  -35.5955 C   0  0  0  0  0  0  0  0  0  0  0  0
   -8.1065  -29.6414  -34.5813 C   0  0  0  0  0  0  0  0  0  0  0  0
   -6.9737  -30.4035  -35.2720 C   0  0  0  0  0  0  0  0  0  0  0  0
   -5.8599  -30.8392  -34.3152 C   0  0  0  0  0  0  0  0  0  0  0  0
   -4.6653  -31.5521  -34.9604 C   0  0  0  0  0  0  0  0  0  0  0  0
   -4.9847  -32.9115  -35.5749 C   0  0  0  0  0  0  0  0  0  0  0  0
   -7.0705  -35.2575  -33.6683 N   0  0  0  0  0  0  0  0  0  0  0  0
   -5.5235  -33.8377  -34.6176 N   0  0  0  0  0  0  0  0  0  0  0  0
   -7.5953  -34.1728  -35.6224 O   0  0  0  0  0  0  0  0  0  0  0  0
  -23.1784  -22.8867  -37.0893 H   0  0  0  0  0  0  0  0  0  0  0  0
  -21.6438  -22.0019  -37.0623 H   0  0  0  0  0  0  0  0  0  0  0  0
  -21.8107  -23.5326  -36.1776 H   0  0  0  0  0  0  0  0  0  0  0  0
  -21.9813  -24.8015  -38.2641 H   0  0  0  0  0  0  0  0  0  0  0  0
  -22.1527  -23.3243  -39.2059 H   0  0  0  0  0  0  0  0  0  0  0  0
  -19.9289  -24.1704  -39.5477 H   0  0  0  0  0  0  0  0  0  0  0  0
  -19.8216  -22.6619  -38.6448 H   0  0  0  0  0  0  0  0  0  0  0  0
  -19.5369  -23.9985  -36.5103 H   0  0  0  0  0  0  0  0  0  0  0  0
  -19.6582  -25.4796  -37.4443 H   0  0  0  0  0  0  0  0  0  0  0  0
  -17.6378  -24.8304  -38.7564 H   0  0  0  0  0  0  0  0  0  0  0  0
  -17.4762  -23.3808  -37.7889 H   0  0  0  0  0  0  0  0  0  0  0  0
  -17.1084  -24.7120  -35.7506 H   0  0  0  0  0  0  0  0  0  0  0  0
  -17.3460  -26.2007  -36.6281 H   0  0  0  0  0  0  0  0  0  0  0  0
  -15.3432  -25.7092  -38.0350 H   0  0  0  0  0  0  0  0  0  0  0  0
  -15.0691  -24.2323  -37.1488 H   0  0  0  0  0  0  0  0  0  0  0  0
  -14.6529  -25.4580  -35.0742 H   0  0  0  0  0  0  0  0  0  0  0  0
  -15.0630  -26.9840  -35.8270 H   0  0  0  0  0  0  0  0  0  0  0  0
  -12.6352  -25.2460  -36.4923 H   0  0  0  0  0  0  0  0  0  0  0  0
  -13.1195  -26.6583  -37.4137 H   0  0  0  0  0  0  0  0  0  0  0  0
  -12.3699  -26.6756  -34.4422 H   0  0  0  0  0  0  0  0  0  0  0  0
  -12.9002  -28.0858  -35.3627 H   0  0  0  0  0  0  0  0  0  0  0  0
  -10.9492  -27.8152  -36.9019 H   0  0  0  0  0  0  0  0  0  0  0  0
  -10.4359  -26.3806  -36.0105 H   0  0  0  0  0  0  0  0  0  0  0  0
  -10.8369  -29.0186  -34.5462 H   0  0  0  0  0  0  0  0  0  0  0  0
   -9.8522  -27.6337  -34.0690 H   0  0  0  0  0  0  0  0  0  0  0  0
   -8.3440  -28.0909  -36.0672 H   0  0  0  0  0  0  0  0  0  0  0  0
   -9.2837  -29.5496  -36.3914 H   0  0  0  0  0  0  0  0  0  0  0  0
   -8.7421  -30.3460  -34.0317 H   0  0  0  0  0  0  0  0  0  0  0  0
   -7.6941  -28.9364  -33.8510 H   0  0  0  0  0  0  0  0  0  0  0  0
   -6.5569  -29.7961  -36.0835 H   0  0  0  0  0  0  0  0  0  0  0  0
   -7.3850  -31.3047  -35.7443 H   0  0  0  0  0  0  0  0  0  0  0  0
   -6.2974  -31.4907  -33.5487 H   0  0  0  0  0  0  0  0  0  0  0  0
   -5.4856  -29.9555  -33.7831 H   0  0  0  0  0  0  0  0  0  0  0  0
   -3.8925  -31.6805  -34.1916 H   0  0  0  0  0  0  0  0  0  0  0  0
   -4.2250  -30.9085  -35.7305 H   0  0  0  0  0  0  0  0  0  0  0  0
   -4.0702  -33.3626  -35.9734 H   0  0  0  0  0  0  0  0  0  0  0  0
   -5.6987  -32.8253  -36.3988 H   0  0  0  0  0  0  0  0  0  0  0  0
   -7.9566  -35.7461  -33.5989 H   0  0  0  0  0  0  0  0  0  0  0  0
   -6.3906  -35.4255  -32.9343 H   0  0  0  0  0  0  0  0  0  0  0  0
   -4.9435  -34.0984  -33.8214 H   0  0  0  0  0  0  0  0  0  0  0  0
  1 20  1  0  0  0  0
  1 21  1  0  0  0  0
  1 22  2  0  0  0  0
  2  3  1  0  0  0  0
  3  4  1  0  0  0  0
  4  5  1  0  0  0  0
  5  6  1  0  0  0  0
  6  7  1  0  0  0  0
  7  8  1  0  0  0  0
  8  9  1  0  0  0  0
  9 10  1  0  0  0  0
 10 11  1  0  0  0  0
 11 12  1  0  0  0  0
 12 13  1  0  0  0  0
 13 14  1  0  0  0  0
 14 15  1  0  0  0  0
 15 16  1  0  0  0  0
 16 17  1  0  0  0  0
 17 18  1  0  0  0  0
 18 19  1  0  0  0  0
 19 21  1  0  0  0  0
  2 23  1  0  0  0  0
  2 24  1  0  0  0  0
  2 25  1  0  0  0  0
  3 26  1  0  0  0  0
  3 27  1  0  0  0  0
  4 28  1  0  0  0  0
  4 29  1  0  0  0  0
  5 30  1  0  0  0  0
  5 31  1  0  0  0  0
  6 32  1  0  0  0  0
  6 33  1  0  0  0  0
  7 34  1  0  0  0  0
  7 35  1  0  0  0  0
  8 36  1  0  0  0  0
  8 37  1  0  0  0  0
  9 38  1  0  0  0  0
  9 39  1  0  0  0  0
 10 40  1  0  0  0  0
 10 41  1  0  0  0  0
 11 42  1  0  0  0  0
 11 43  1  0  0  0  0
 12 44  1  0  0  0  0
 12 45  1  0  0  0  0
 13 46  1  0  0  0  0
 13 47  1  0  0  0  0
 14 48  1  0  0  0  0
 14 49  1  0  0  0  0
 15 50  1  0  0  0  0
 15 51  1  0  0  0  0
 16 52  1  0  0  0  0
 16 53  1  0  0  0  0
 17 54  1  0  0  0  0
 17 55  1  0  0  0  0
 18 56  1  0  0  0  0
 18 57  1  0  0  0  0
 19 58  1  0  0  0  0
 19 59  1  0  0  0  0
 20 60  1  0  0  0  0
 20 61  1  0  0  0  0
 21 62  1  0  0  0  0
M  END
> <Name>
IA_104.cdx

> <SourceTag>
IA_104

> <Gold.Version>
5.2

> <Gold.Id.Protein>
6HGV|6HGV_protein|mol2

> <Gold.Goldscore.Fitness>
68.0570

> <Gold.Goldscore.Internal.Vdw>
-5.3486

> <Gold.Goldscore.Internal.Torsion>
-3.0044

> <Gold.Goldscore.External.Vdw>
49.1621

> <Gold.Goldscore.Internal.HBond>
0.0000

> <Gold.Goldscore.External.HBond>
1.8409

> <Gold.Goldscore.Internal.Correction>
-6.9712

> <Gold.Goldscore.Hbonds>
donor molecule, donor type, donor heavy atom, donor atom, acceptor molecule, acceptor atom, score
      L1  H    20    60       P1  1176  0.92

> <Gold.Goldscore.Internal.Vdw.Weighted>
-5.3486

> <Gold.Goldscore.Internal.Torsion.Weighted>
-3.0044

> <Gold.Goldscore.External.Vdw.Weighted>
67.5979

> <Gold.Goldscore.Internal.HBond.Weighted>
0.0000

> <Gold.Goldscore.External.HBond.Weighted>
1.8409

> <Gold.Goldscore.Internal.Correction.Weighted>
-6.9712

> <Gold.Protein.RotatedTorsions>
[ 3781 1176 1175 1172 ] final  118.00 input   60.00 | X-H torsion
[ 3847 1247 1246 1244 ] final   65.54 input   60.00 | X-H torsion
[ 4507 1931 1930 1928 ] final   77.48 input   60.00 | X-H torsion
[ 3677 1070 1069 1066 ] final  -60.38 input   60.00 | X-H torsion
[ 3525  925  924  922 ] final   49.55 input   59.99 | X-H torsion
[ 4531 1957 1955 1953 ] final  -78.10 input   60.00 | X-H torsion

> <Gold.Protein.ActiveResidues>
 PHE267  PRO268  MET310  ASP335  TRP336  MET339  TYR343  THR360  PRO361  ILE363
 PRO371  SER374  ILE375  ASN378  PHE381  TYR383  GLN384  PHE387  LEU408  LEU417
 MET419  LEU428  TYR466  MET469  ASN472  ASP496  VAL498  LEU499  MET503  HIS524
 TRP525

> <Gold.Protein.RotatedAtoms>
   -2.9615  -29.7872  -30.8672 H   0  0  0  0  0  0  0  0  0  0  0  0  # atno 3525 bound_to 925
  -12.3160  -23.8258  -31.1720 H   0  0  0  0  0  0  0  0  0  0  0  0  # atno 3677 bound_to 1070
   -9.8671  -37.1010  -32.3716 H   0  0  0  0  0  0  0  0  0  0  0  0  # atno 3781 bound_to 1176
  -14.7587  -28.8985  -37.3591 H   0  0  0  0  0  0  0  0  0  0  0  0  # atno 3847 bound_to 1247
  -12.5178  -24.4239  -38.8922 H   0  0  0  0  0  0  0  0  0  0  0  0  # atno 4507 bound_to 1931
   -1.7104  -32.3243  -36.9039 H   0  0  0  0  0  0  0  0  0  0  0  0  # atno 4531 bound_to 1957
  -10.7990  -37.2221  -33.7001 LP  0  0  0  0  0  0  0  0  0  0  0  0  # atno 5205 bound_to 1176
   -9.4458  -36.3085  -33.7290 LP  0  0  0  0  0  0  0  0  0  0  0  0  # atno 5206 bound_to 1176
  -16.0730  -27.9519  -37.2027 LP  0  0  0  0  0  0  0  0  0  0  0  0  # atno 5215 bound_to 1247
  -14.7357  -27.3809  -37.9460 LP  0  0  0  0  0  0  0  0  0  0  0  0  # atno 5216 bound_to 1247
  -13.6187  -25.3406  -39.6641 LP  0  0  0  0  0  0  0  0  0  0  0  0  # atno 5217 bound_to 1931
  -13.0621  -23.9707  -40.3572 LP  0  0  0  0  0  0  0  0  0  0  0  0  # atno 5218 bound_to 1931
  -11.0878  -22.7583  -31.1709 LP  0  0  0  0  0  0  0  0  0  0  0  0  # atno 5224 bound_to 1070
  -12.4476  -22.4437  -30.3232 LP  0  0  0  0  0  0  0  0  0  0  0  0  # atno 5225 bound_to 1070

$$$$
IA_104.cdx|SeH_inactivess_minimized|sdf|6|dock8
  -GOLD-   4172118353D 1   1.00000     0.00000

 62 61  0  0  0  0  0  0  0  0  1 V2000
   -3.6686  -32.9459  -33.1246 C   0  0  0  0  0  0  0  0  0  0  0  0
  -21.5756  -23.4594  -39.5913 C   0  0  0  0  0  0  0  0  0  0  0  0
  -20.7031  -24.3657  -38.7366 C   0  0  0  0  0  0  0  0  0  0  0  0
  -20.3616  -23.7695  -37.3686 C   0  0  0  0  0  0  0  0  0  0  0  0
  -19.4008  -24.6399  -36.5546 C   0  0  0  0  0  0  0  0  0  0  0  0
  -17.9508  -24.5624  -37.0448 C   0  0  0  0  0  0  0  0  0  0  0  0
  -16.9420  -25.4140  -36.2671 C   0  0  0  0  0  0  0  0  0  0  0  0
  -15.4856  -25.2996  -36.7281 C   0  0  0  0  0  0  0  0  0  0  0  0
  -14.4467  -25.9422  -35.8033 C   0  0  0  0  0  0  0  0  0  0  0  0
  -12.9834  -25.7509  -36.2135 C   0  0  0  0  0  0  0  0  0  0  0  0
  -11.9899  -26.3727  -35.2299 C   0  0  0  0  0  0  0  0  0  0  0  0
  -10.5583  -25.9220  -35.5294 C   0  0  0  0  0  0  0  0  0  0  0  0
   -9.5513  -26.6293  -34.6209 C   0  0  0  0  0  0  0  0  0  0  0  0
   -9.3157  -28.0728  -35.0687 C   0  0  0  0  0  0  0  0  0  0  0  0
   -7.9517  -28.5848  -34.6005 C   0  0  0  0  0  0  0  0  0  0  0  0
   -7.8277  -30.0961  -34.8041 C   0  0  0  0  0  0  0  0  0  0  0  0
   -6.3812  -30.5727  -34.9672 C   0  0  0  0  0  0  0  0  0  0  0  0
   -6.1937  -32.0803  -35.1762 C   0  0  0  0  0  0  0  0  0  0  0  0
   -4.7449  -32.5307  -35.3361 C   0  0  0  0  0  0  0  0  0  0  0  0
   -2.8428  -32.3309  -32.2006 N   0  0  0  0  0  0  0  0  0  0  0  0
   -3.9182  -32.1356  -34.2293 N   0  0  0  0  0  0  0  0  0  0  0  0
   -4.1186  -34.0793  -32.9658 O   0  0  0  0  0  0  0  0  0  0  0  0
  -21.0680  -22.5053  -39.7657 H   0  0  0  0  0  0  0  0  0  0  0  0
  -22.5291  -23.2504  -39.0961 H   0  0  0  0  0  0  0  0  0  0  0  0
  -21.7830  -23.9067  -40.5679 H   0  0  0  0  0  0  0  0  0  0  0  0
  -21.1985  -25.3352  -38.6090 H   0  0  0  0  0  0  0  0  0  0  0  0
  -19.7670  -24.5570  -39.2751 H   0  0  0  0  0  0  0  0  0  0  0  0
  -19.9062  -22.7844  -37.5277 H   0  0  0  0  0  0  0  0  0  0  0  0
  -21.2895  -23.6045  -36.8093 H   0  0  0  0  0  0  0  0  0  0  0  0
  -19.4458  -24.3670  -35.4951 H   0  0  0  0  0  0  0  0  0  0  0  0
  -19.7245  -25.6863  -36.6188 H   0  0  0  0  0  0  0  0  0  0  0  0
  -17.9258  -24.8443  -38.1040 H   0  0  0  0  0  0  0  0  0  0  0  0
  -17.6201  -23.5167  -37.0050 H   0  0  0  0  0  0  0  0  0  0  0  0
  -17.0089  -25.1470  -35.2057 H   0  0  0  0  0  0  0  0  0  0  0  0
  -17.2402  -26.4679  -36.3212 H   0  0  0  0  0  0  0  0  0  0  0  0
  -15.4033  -25.7418  -37.7282 H   0  0  0  0  0  0  0  0  0  0  0  0
  -15.2272  -24.2415  -36.8566 H   0  0  0  0  0  0  0  0  0  0  0  0
  -14.5864  -25.5335  -34.7945 H   0  0  0  0  0  0  0  0  0  0  0  0
  -14.6477  -27.0168  -35.7214 H   0  0  0  0  0  0  0  0  0  0  0  0
  -12.7633  -24.6849  -36.3407 H   0  0  0  0  0  0  0  0  0  0  0  0
  -12.8459  -26.2124  -37.1995 H   0  0  0  0  0  0  0  0  0  0  0  0
  -12.2472  -26.0865  -34.2041 H   0  0  0  0  0  0  0  0  0  0  0  0
  -12.0504  -27.4660  -35.2883 H   0  0  0  0  0  0  0  0  0  0  0  0
  -10.3179  -26.1337  -36.5784 H   0  0  0  0  0  0  0  0  0  0  0  0
  -10.4788  -24.8368  -35.3917 H   0  0  0  0  0  0  0  0  0  0  0  0
   -9.9193  -26.6205  -33.5878 H   0  0  0  0  0  0  0  0  0  0  0  0
   -8.6008  -26.0822  -34.6304 H   0  0  0  0  0  0  0  0  0  0  0  0
   -9.3747  -28.1326  -36.1622 H   0  0  0  0  0  0  0  0  0  0  0  0
  -10.1078  -28.7159  -34.6662 H   0  0  0  0  0  0  0  0  0  0  0  0
   -7.8136  -28.3441  -33.5396 H   0  0  0  0  0  0  0  0  0  0  0  0
   -7.1644  -28.0649  -35.1578 H   0  0  0  0  0  0  0  0  0  0  0  0
   -8.4260  -30.4058  -35.6686 H   0  0  0  0  0  0  0  0  0  0  0  0
   -8.2567  -30.6105  -33.9348 H   0  0  0  0  0  0  0  0  0  0  0  0
   -5.8114  -30.2576  -34.0844 H   0  0  0  0  0  0  0  0  0  0  0  0
   -5.9310  -30.0495  -35.8204 H   0  0  0  0  0  0  0  0  0  0  0  0
   -6.7587  -32.3705  -36.0715 H   0  0  0  0  0  0  0  0  0  0  0  0
   -6.6457  -32.6265  -34.3404 H   0  0  0  0  0  0  0  0  0  0  0  0
   -4.3122  -32.0771  -36.2336 H   0  0  0  0  0  0  0  0  0  0  0  0
   -4.6682  -33.6165  -35.4429 H   0  0  0  0  0  0  0  0  0  0  0  0
   -2.5670  -32.7936  -31.3412 H   0  0  0  0  0  0  0  0  0  0  0  0
   -2.4858  -31.3941  -32.3571 H   0  0  0  0  0  0  0  0  0  0  0  0
   -3.4907  -31.2110  -34.2542 H   0  0  0  0  0  0  0  0  0  0  0  0
  1 20  1  0  0  0  0
  1 21  1  0  0  0  0
  1 22  2  0  0  0  0
  2  3  1  0  0  0  0
  3  4  1  0  0  0  0
  4  5  1  0  0  0  0
  5  6  1  0  0  0  0
  6  7  1  0  0  0  0
  7  8  1  0  0  0  0
  8  9  1  0  0  0  0
  9 10  1  0  0  0  0
 10 11  1  0  0  0  0
 11 12  1  0  0  0  0
 12 13  1  0  0  0  0
 13 14  1  0  0  0  0
 14 15  1  0  0  0  0
 15 16  1  0  0  0  0
 16 17  1  0  0  0  0
 17 18  1  0  0  0  0
 18 19  1  0  0  0  0
 19 21  1  0  0  0  0
  2 23  1  0  0  0  0
  2 24  1  0  0  0  0
  2 25  1  0  0  0  0
  3 26  1  0  0  0  0
  3 27  1  0  0  0  0
  4 28  1  0  0  0  0
  4 29  1  0  0  0  0
  5 30  1  0  0  0  0
  5 31  1  0  0  0  0
  6 32  1  0  0  0  0
  6 33  1  0  0  0  0
  7 34  1  0  0  0  0
  7 35  1  0  0  0  0
  8 36  1  0  0  0  0
  8 37  1  0  0  0  0
  9 38  1  0  0  0  0
  9 39  1  0  0  0  0
 10 40  1  0  0  0  0
 10 41  1  0  0  0  0
 11 42  1  0  0  0  0
 11 43  1  0  0  0  0
 12 44  1  0  0  0  0
 12 45  1  0  0  0  0
 13 46  1  0  0  0  0
 13 47  1  0  0  0  0
 14 48  1  0  0  0  0
 14 49  1  0  0  0  0
 15 50  1  0  0  0  0
 15 51  1  0  0  0  0
 16 52  1  0  0  0  0
 16 53  1  0  0  0  0
 17 54  1  0  0  0  0
 17 55  1  0  0  0  0
 18 56  1  0  0  0  0
 18 57  1  0  0  0  0
 19 58  1  0  0  0  0
 19 59  1  0  0  0  0
 20 60  1  0  0  0  0
 20 61  1  0  0  0  0
 21 62  1  0  0  0  0
M  END
> <Name>
IA_104.cdx

> <SourceTag>
IA_104

> <Gold.Version>
5.2

> <Gold.Id.Protein>
6HGV|6HGV_protein|mol2

> <Gold.Goldscore.Fitness>
67.9500

> <Gold.Goldscore.Internal.Vdw>
-7.5889

> <Gold.Goldscore.Internal.Torsion>
-5.1269

> <Gold.Goldscore.External.Vdw>
53.5961

> <Gold.Goldscore.Internal.HBond>
0.0000

> <Gold.Goldscore.External.HBond>
0.0000

> <Gold.Goldscore.Internal.Correction>
-6.9712

> <Gold.Goldscore.Internal.Vdw.Weighted>
-7.5889

> <Gold.Goldscore.Internal.Torsion.Weighted>
-5.1269

> <Gold.Goldscore.External.Vdw.Weighted>
73.6946

> <Gold.Goldscore.Internal.HBond.Weighted>
0.0000

> <Gold.Goldscore.External.HBond.Weighted>
0.0000

> <Gold.Goldscore.Internal.Correction.Weighted>
-6.9712

> <Gold.Protein.RotatedTorsions>
[ 3781 1176 1175 1172 ] final  -69.91 input   60.00 | X-H torsion
[ 3847 1247 1246 1244 ] final  102.14 input   60.00 | X-H torsion
[ 4507 1931 1930 1928 ] final   89.41 input   60.00 | X-H torsion
[ 3677 1070 1069 1066 ] final -110.48 input   60.00 | X-H torsion
[ 3525  925  924  922 ] final   15.87 input   59.99 | X-H torsion
[ 4531 1957 1955 1953 ] final  120.45 input   60.00 | X-H torsion

> <Gold.Protein.ActiveResidues>
 PHE267  PRO268  MET310  ASP335  TRP336  MET339  TYR343  THR360  PRO361  ILE363
 PRO371  SER374  ILE375  ASN378  PHE381  TYR383  GLN384  PHE387  LEU408  LEU417
 MET419  LEU428  TYR466  MET469  ASN472  ASP496  VAL498  LEU499  MET503  HIS524
 TRP525

> <Gold.Protein.RotatedAtoms>
   -3.4290  -29.6020  -30.6636 H   0  0  0  0  0  0  0  0  0  0  0  0  # atno 3525 bound_to 925
  -11.5870  -23.6724  -31.4431 H   0  0  0  0  0  0  0  0  0  0  0  0  # atno 3677 bound_to 1070
  -10.0967  -36.5870  -34.1527 H   0  0  0  0  0  0  0  0  0  0  0  0  # atno 3781 bound_to 1176
  -14.3864  -28.5419  -37.6417 H   0  0  0  0  0  0  0  0  0  0  0  0  # atno 3847 bound_to 1247
  -12.4637  -24.2650  -38.9904 H   0  0  0  0  0  0  0  0  0  0  0  0  # atno 4507 bound_to 1931
   -2.3717  -34.0474  -36.8080 H   0  0  0  0  0  0  0  0  0  0  0  0  # atno 4531 bound_to 1957
   -9.3164  -36.5982  -32.7247 LP  0  0  0  0  0  0  0  0  0  0  0  0  # atno 5205 bound_to 1176
  -10.6972  -37.4499  -32.9106 LP  0  0  0  0  0  0  0  0  0  0  0  0  # atno 5206 bound_to 1176
  -15.9050  -28.5010  -37.0586 LP  0  0  0  0  0  0  0  0  0  0  0  0  # atno 5215 bound_to 1247
  -15.2787  -27.1910  -37.8056 LP  0  0  0  0  0  0  0  0  0  0  0  0  # atno 5216 bound_to 1247
  -13.5415  -25.3779  -39.4879 LP  0  0  0  0  0  0  0  0  0  0  0  0  # atno 5217 bound_to 1931
  -13.1938  -24.0935  -40.4345 LP  0  0  0  0  0  0  0  0  0  0  0  0  # atno 5218 bound_to 1931
  -11.4543  -22.2346  -30.6925 LP  0  0  0  0  0  0  0  0  0  0  0  0  # atno 5224 bound_to 1070
  -12.8153  -23.1219  -30.5286 LP  0  0  0  0  0  0  0  0  0  0  0  0  # atno 5225 bound_to 1070

$$$$
IA_105.cdx|SeH_inactivess_minimized|sdf|7|dock8
  -GOLD-   4172118383D 1   1.00000     0.00000

 60 59  0  0  0  0  0  0  0  0  1 V2000
  -12.0010  -25.7737  -35.4011 C   0  0  0  0  0  0  0  0  0  0  0  0
  -10.6910  -26.0534  -35.4670 C   0  0  0  0  0  0  0  0  0  0  0  0
   -4.1595  -34.0409  -33.7562 C   0  0  0  0  0  0  0  0  0  0  0  0
  -17.6262  -22.6585  -40.2352 C   0  0  0  0  0  0  0  0  0  0  0  0
   -5.8989  -37.1990  -32.8710 C   0  0  0  0  0  0  0  0  0  0  0  0
  -13.0838  -26.7713  -35.6937 C   0  0  0  0  0  0  0  0  0  0  0  0
  -10.1457  -27.4007  -35.8419 C   0  0  0  0  0  0  0  0  0  0  0  0
  -17.4093  -23.2184  -38.8379 C   0  0  0  0  0  0  0  0  0  0  0  0
  -14.4571  -26.1187  -35.8842 C   0  0  0  0  0  0  0  0  0  0  0  0
   -9.1275  -27.9380  -34.8301 C   0  0  0  0  0  0  0  0  0  0  0  0
  -16.1296  -24.0462  -38.7035 C   0  0  0  0  0  0  0  0  0  0  0  0
  -14.5593  -25.2986  -37.1740 C   0  0  0  0  0  0  0  0  0  0  0  0
   -8.2903  -29.1320  -35.3052 C   0  0  0  0  0  0  0  0  0  0  0  0
  -15.9333  -24.6369  -37.3054 C   0  0  0  0  0  0  0  0  0  0  0  0
   -7.0067  -29.4017  -34.5138 C   0  0  0  0  0  0  0  0  0  0  0  0
   -6.1597  -30.5797  -35.0042 C   0  0  0  0  0  0  0  0  0  0  0  0
   -4.8491  -30.7482  -34.2346 C   0  0  0  0  0  0  0  0  0  0  0  0
   -4.6792  -36.3458  -32.9534 C   0  0  0  0  0  0  0  0  0  0  0  0
   -3.9708  -31.8203  -34.8687 C   0  0  0  0  0  0  0  0  0  0  0  0
   -4.8856  -35.2257  -33.8422 N   0  0  0  0  0  0  0  0  0  0  0  0
   -4.5575  -33.1249  -34.7322 N   0  0  0  0  0  0  0  0  0  0  0  0
   -3.2770  -33.8238  -32.9268 O   0  0  0  0  0  0  0  0  0  0  0  0
  -12.3207  -24.7739  -35.1177 H   0  0  0  0  0  0  0  0  0  0  0  0
   -9.9657  -25.2753  -35.2426 H   0  0  0  0  0  0  0  0  0  0  0  0
  -18.6063  -22.1746  -40.2976 H   0  0  0  0  0  0  0  0  0  0  0  0
  -16.8641  -21.9128  -40.4825 H   0  0  0  0  0  0  0  0  0  0  0  0
  -17.5983  -23.4474  -40.9925 H   0  0  0  0  0  0  0  0  0  0  0  0
   -6.0904  -37.7001  -33.8260 H   0  0  0  0  0  0  0  0  0  0  0  0
   -5.7958  -37.9523  -32.0824 H   0  0  0  0  0  0  0  0  0  0  0  0
   -6.7712  -36.5781  -32.6344 H   0  0  0  0  0  0  0  0  0  0  0  0
  -13.1458  -27.5288  -34.9028 H   0  0  0  0  0  0  0  0  0  0  0  0
  -12.8159  -27.3021  -36.6153 H   0  0  0  0  0  0  0  0  0  0  0  0
   -9.7029  -27.3822  -36.8444 H   0  0  0  0  0  0  0  0  0  0  0  0
  -10.9870  -28.1028  -35.8928 H   0  0  0  0  0  0  0  0  0  0  0  0
  -18.2769  -23.8222  -38.5475 H   0  0  0  0  0  0  0  0  0  0  0  0
  -17.3561  -22.3808  -38.1322 H   0  0  0  0  0  0  0  0  0  0  0  0
  -14.6497  -25.4643  -35.0250 H   0  0  0  0  0  0  0  0  0  0  0  0
  -15.2383  -26.8893  -35.8749 H   0  0  0  0  0  0  0  0  0  0  0  0
   -9.6578  -28.2069  -33.9087 H   0  0  0  0  0  0  0  0  0  0  0  0
   -8.4391  -27.1286  -34.5530 H   0  0  0  0  0  0  0  0  0  0  0  0
  -16.1328  -24.8512  -39.4486 H   0  0  0  0  0  0  0  0  0  0  0  0
  -15.2765  -23.3989  -38.9419 H   0  0  0  0  0  0  0  0  0  0  0  0
  -13.7780  -24.5291  -37.1825 H   0  0  0  0  0  0  0  0  0  0  0  0
  -14.3897  -25.9441  -38.0431 H   0  0  0  0  0  0  0  0  0  0  0  0
   -8.0389  -28.9791  -36.3617 H   0  0  0  0  0  0  0  0  0  0  0  0
   -8.9071  -30.0386  -35.2819 H   0  0  0  0  0  0  0  0  0  0  0  0
  -16.0334  -23.8450  -36.5535 H   0  0  0  0  0  0  0  0  0  0  0  0
  -16.7103  -25.3818  -37.1000 H   0  0  0  0  0  0  0  0  0  0  0  0
   -6.3824  -28.5007  -34.5131 H   0  0  0  0  0  0  0  0  0  0  0  0
   -7.2807  -29.5759  -33.4655 H   0  0  0  0  0  0  0  0  0  0  0  0
   -5.9321  -30.4138  -36.0648 H   0  0  0  0  0  0  0  0  0  0  0  0
   -6.7406  -31.5078  -34.9567 H   0  0  0  0  0  0  0  0  0  0  0  0
   -4.3065  -29.7950  -34.2107 H   0  0  0  0  0  0  0  0  0  0  0  0
   -5.0524  -31.0217  -33.1927 H   0  0  0  0  0  0  0  0  0  0  0  0
   -3.8323  -36.9235  -33.3355 H   0  0  0  0  0  0  0  0  0  0  0  0
   -4.4179  -35.9464  -31.9691 H   0  0  0  0  0  0  0  0  0  0  0  0
   -2.9854  -31.8534  -34.3932 H   0  0  0  0  0  0  0  0  0  0  0  0
   -3.8328  -31.6331  -35.9383 H   0  0  0  0  0  0  0  0  0  0  0  0
   -5.5944  -35.3066  -34.5646 H   0  0  0  0  0  0  0  0  0  0  0  0
   -5.2659  -33.4151  -35.4041 H   0  0  0  0  0  0  0  0  0  0  0  0
  1  2  2  0  0  0  0
  1  6  1  0  0  0  0
  2  7  1  0  0  0  0
  3 20  1  0  0  0  0
  3 21  1  0  0  0  0
  3 22  2  0  0  0  0
  4  8  1  0  0  0  0
  5 18  1  0  0  0  0
  6  9  1  0  0  0  0
  7 10  1  0  0  0  0
  8 11  1  0  0  0  0
  9 12  1  0  0  0  0
 10 13  1  0  0  0  0
 11 14  1  0  0  0  0
 12 14  1  0  0  0  0
 13 15  1  0  0  0  0
 15 16  1  0  0  0  0
 16 17  1  0  0  0  0
 17 19  1  0  0  0  0
 18 20  1  0  0  0  0
 19 21  1  0  0  0  0
  1 23  1  0  0  0  0
  2 24  1  0  0  0  0
  4 25  1  0  0  0  0
  4 26  1  0  0  0  0
  4 27  1  0  0  0  0
  5 28  1  0  0  0  0
  5 29  1  0  0  0  0
  5 30  1  0  0  0  0
  6 31  1  0  0  0  0
  6 32  1  0  0  0  0
  7 33  1  0  0  0  0
  7 34  1  0  0  0  0
  8 35  1  0  0  0  0
  8 36  1  0  0  0  0
  9 37  1  0  0  0  0
  9 38  1  0  0  0  0
 10 39  1  0  0  0  0
 10 40  1  0  0  0  0
 11 41  1  0  0  0  0
 11 42  1  0  0  0  0
 12 43  1  0  0  0  0
 12 44  1  0  0  0  0
 13 45  1  0  0  0  0
 13 46  1  0  0  0  0
 14 47  1  0  0  0  0
 14 48  1  0  0  0  0
 15 49  1  0  0  0  0
 15 50  1  0  0  0  0
 16 51  1  0  0  0  0
 16 52  1  0  0  0  0
 17 53  1  0  0  0  0
 17 54  1  0  0  0  0
 18 55  1  0  0  0  0
 18 56  1  0  0  0  0
 19 57  1  0  0  0  0
 19 58  1  0  0  0  0
 20 59  1  0  0  0  0
 21 60  1  0  0  0  0
M  END
> <Name>
IA_105.cdx

> <SourceTag>
IA_105

> <Gold.Version>
5.2

> <Gold.Id.Protein>
6HGV|6HGV_protein|mol2

> <Gold.Goldscore.Fitness>
73.1620

> <Gold.Goldscore.Internal.Vdw>
-8.3019

> <Gold.Goldscore.Internal.Torsion>
-4.8506

> <Gold.Goldscore.External.Vdw>
56.0397

> <Gold.Goldscore.Internal.HBond>
0.0000

> <Gold.Goldscore.External.HBond>
0.0000

> <Gold.Goldscore.Internal.Correction>
-9.2599

> <Gold.Goldscore.Internal.Vdw.Weighted>
-8.3019

> <Gold.Goldscore.Internal.Torsion.Weighted>
-4.8506

> <Gold.Goldscore.External.Vdw.Weighted>
77.0546

> <Gold.Goldscore.Internal.HBond.Weighted>
0.0000

> <Gold.Goldscore.External.HBond.Weighted>
0.0000

> <Gold.Goldscore.Internal.Correction.Weighted>
-9.2599

> <Gold.Protein.RotatedTorsions>
[ 3781 1176 1175 1172 ] final -117.74 input   60.00 | X-H torsion
[ 3847 1247 1246 1244 ] final   68.52 input   60.00 | X-H torsion
[ 4507 1931 1930 1928 ] final  117.00 input   60.00 | X-H torsion
[ 3677 1070 1069 1066 ] final -105.43 input   60.00 | X-H torsion
[ 3525  925  924  922 ] final   57.69 input   59.99 | X-H torsion
[ 4531 1957 1955 1953 ] final  102.61 input   60.00 | X-H torsion

> <Gold.Protein.ActiveResidues>
 PHE267  PRO268  MET310  ASP335  TRP336  MET339  TYR343  THR360  PRO361  ILE363
 PRO371  SER374  ILE375  ASN378  PHE381  TYR383  GLN384  PHE387  LEU408  LEU417
 MET419  LEU428  TYR466  MET469  ASN472  ASP496  VAL498  LEU499  MET503  HIS524
 TRP525

> <Gold.Protein.RotatedAtoms>
   -2.8396  -29.8401  -30.8699 H   0  0  0  0  0  0  0  0  0  0  0  0  # atno 3525 bound_to 925
  -11.6572  -23.7146  -31.4326 H   0  0  0  0  0  0  0  0  0  0  0  0  # atno 3677 bound_to 1070
   -9.4900  -36.3211  -33.7821 H   0  0  0  0  0  0  0  0  0  0  0  0  # atno 3781 bound_to 1176
  -14.7194  -28.8804  -37.3815 H   0  0  0  0  0  0  0  0  0  0  0  0  # atno 3847 bound_to 1247
  -12.4396  -23.9596  -39.3153 H   0  0  0  0  0  0  0  0  0  0  0  0  # atno 4507 bound_to 1931
   -2.6379  -33.9442  -36.7556 H   0  0  0  0  0  0  0  0  0  0  0  0  # atno 4531 bound_to 1957
   -9.8096  -37.0608  -32.3683 LP  0  0  0  0  0  0  0  0  0  0  0  0  # atno 5205 bound_to 1176
  -10.8150  -37.2551  -33.6403 LP  0  0  0  0  0  0  0  0  0  0  0  0  # atno 5206 bound_to 1176
  -16.0724  -27.9977  -37.1854 LP  0  0  0  0  0  0  0  0  0  0  0  0  # atno 5215 bound_to 1247
  -14.7759  -27.3533  -37.9408 LP  0  0  0  0  0  0  0  0  0  0  0  0  # atno 5216 bound_to 1247
  -13.2915  -25.3318  -39.1170 LP  0  0  0  0  0  0  0  0  0  0  0  0  # atno 5217 bound_to 1931
  -13.4682  -24.4471  -40.4782 LP  0  0  0  0  0  0  0  0  0  0  0  0  # atno 5218 bound_to 1931
  -11.3936  -22.2658  -30.7400 LP  0  0  0  0  0  0  0  0  0  0  0  0  # atno 5224 bound_to 1070
  -12.8053  -23.0481  -30.4915 LP  0  0  0  0  0  0  0  0  0  0  0  0  # atno 5225 bound_to 1070

$$$$
IA_105.cdx|SeH_inactivess_minimized|sdf|7|dock2
  -GOLD-   4172118363D 1   1.00000     0.00000

 60 59  0  0  0  0  0  0  0  0  1 V2000
   -9.5743  -26.8268  -35.2890 C   0  0  0  0  0  0  0  0  0  0  0  0
  -10.5242  -25.9540  -35.6561 C   0  0  0  0  0  0  0  0  0  0  0  0
  -21.1785  -23.6931  -36.7928 C   0  0  0  0  0  0  0  0  0  0  0  0
   -4.7266  -33.1133  -35.1087 C   0  0  0  0  0  0  0  0  0  0  0  0
  -24.3953  -22.1379  -37.0024 C   0  0  0  0  0  0  0  0  0  0  0  0
   -9.6073  -28.2886  -35.6286 C   0  0  0  0  0  0  0  0  0  0  0  0
  -11.7387  -26.3322  -36.4529 C   0  0  0  0  0  0  0  0  0  0  0  0
   -6.0707  -33.5334  -34.5342 C   0  0  0  0  0  0  0  0  0  0  0  0
   -8.3890  -29.0499  -35.0951 C   0  0  0  0  0  0  0  0  0  0  0  0
  -12.9654  -25.4758  -36.1190 C   0  0  0  0  0  0  0  0  0  0  0  0
   -7.2537  -32.7586  -35.1184 C   0  0  0  0  0  0  0  0  0  0  0  0
   -8.4892  -30.5645  -35.3011 C   0  0  0  0  0  0  0  0  0  0  0  0
  -14.2716  -25.8967  -36.8036 C   0  0  0  0  0  0  0  0  0  0  0  0
   -7.2882  -31.2900  -34.6892 C   0  0  0  0  0  0  0  0  0  0  0  0
  -15.4538  -24.9385  -36.6277 C   0  0  0  0  0  0  0  0  0  0  0  0
  -16.7670  -25.3772  -37.2825 C   0  0  0  0  0  0  0  0  0  0  0  0
  -17.8860  -24.3432  -37.1532 C   0  0  0  0  0  0  0  0  0  0  0  0
  -23.1278  -22.2424  -36.2246 C   0  0  0  0  0  0  0  0  0  0  0  0
  -19.1942  -24.8706  -37.7308 C   0  0  0  0  0  0  0  0  0  0  0  0
  -22.0241  -22.6237  -37.0753 N   0  0  0  0  0  0  0  0  0  0  0  0
  -20.1978  -23.8432  -37.7755 N   0  0  0  0  0  0  0  0  0  0  0  0
  -21.2790  -24.4177  -35.8035 O   0  0  0  0  0  0  0  0  0  0  0  0
   -8.7198  -26.4771  -34.7151 H   0  0  0  0  0  0  0  0  0  0  0  0
  -10.4307  -24.9095  -35.3694 H   0  0  0  0  0  0  0  0  0  0  0  0
   -3.9307  -33.7458  -34.7026 H   0  0  0  0  0  0  0  0  0  0  0  0
   -4.7162  -33.2139  -36.1986 H   0  0  0  0  0  0  0  0  0  0  0  0
   -4.4875  -32.0767  -34.8537 H   0  0  0  0  0  0  0  0  0  0  0  0
  -25.2404  -21.9105  -36.3435 H   0  0  0  0  0  0  0  0  0  0  0  0
  -24.3184  -21.3617  -37.7716 H   0  0  0  0  0  0  0  0  0  0  0  0
  -24.6039  -23.0911  -37.5026 H   0  0  0  0  0  0  0  0  0  0  0  0
   -9.6867  -28.4398  -36.7121 H   0  0  0  0  0  0  0  0  0  0  0  0
  -10.5130  -28.7196  -35.1851 H   0  0  0  0  0  0  0  0  0  0  0  0
  -11.9785  -27.3942  -36.3267 H   0  0  0  0  0  0  0  0  0  0  0  0
  -11.5008  -26.1971  -37.5151 H   0  0  0  0  0  0  0  0  0  0  0  0
   -6.0530  -33.4219  -33.4440 H   0  0  0  0  0  0  0  0  0  0  0  0
   -6.2189  -34.6001  -34.7410 H   0  0  0  0  0  0  0  0  0  0  0  0
   -8.2926  -28.8377  -34.0231 H   0  0  0  0  0  0  0  0  0  0  0  0
   -7.4769  -28.6726  -35.5745 H   0  0  0  0  0  0  0  0  0  0  0  0
  -12.7417  -24.4316  -36.3685 H   0  0  0  0  0  0  0  0  0  0  0  0
  -13.1286  -25.4950  -35.0333 H   0  0  0  0  0  0  0  0  0  0  0  0
   -7.2312  -32.8241  -36.2132 H   0  0  0  0  0  0  0  0  0  0  0  0
   -8.1791  -33.2491  -34.7919 H   0  0  0  0  0  0  0  0  0  0  0  0
   -9.4149  -30.9365  -34.8457 H   0  0  0  0  0  0  0  0  0  0  0  0
   -8.5376  -30.7949  -36.3714 H   0  0  0  0  0  0  0  0  0  0  0  0
  -14.5520  -26.8896  -36.4319 H   0  0  0  0  0  0  0  0  0  0  0  0
  -14.0912  -26.0289  -37.8773 H   0  0  0  0  0  0  0  0  0  0  0  0
   -7.3388  -31.2269  -33.5956 H   0  0  0  0  0  0  0  0  0  0  0  0
   -6.3675  -30.7854  -35.0028 H   0  0  0  0  0  0  0  0  0  0  0  0
  -15.6354  -24.7753  -35.5591 H   0  0  0  0  0  0  0  0  0  0  0  0
  -15.1658  -23.9606  -37.0343 H   0  0  0  0  0  0  0  0  0  0  0  0
  -17.0872  -26.3117  -36.8044 H   0  0  0  0  0  0  0  0  0  0  0  0
  -16.6007  -25.6147  -38.3394 H   0  0  0  0  0  0  0  0  0  0  0  0
  -18.0296  -24.0804  -36.0977 H   0  0  0  0  0  0  0  0  0  0  0  0
  -17.6115  -23.4185  -37.6739 H   0  0  0  0  0  0  0  0  0  0  0  0
  -23.2210  -22.9989  -35.4396 H   0  0  0  0  0  0  0  0  0  0  0  0
  -22.8762  -21.2836  -35.7619 H   0  0  0  0  0  0  0  0  0  0  0  0
  -19.5910  -25.6895  -37.1224 H   0  0  0  0  0  0  0  0  0  0  0  0
  -19.0531  -25.2360  -38.7530 H   0  0  0  0  0  0  0  0  0  0  0  0
  -21.8572  -22.0859  -37.9200 H   0  0  0  0  0  0  0  0  0  0  0  0
  -20.2253  -23.2214  -38.5818 H   0  0  0  0  0  0  0  0  0  0  0  0
  1  2  2  0  0  0  0
  1  6  1  0  0  0  0
  2  7  1  0  0  0  0
  3 20  1  0  0  0  0
  3 21  1  0  0  0  0
  3 22  2  0  0  0  0
  4  8  1  0  0  0  0
  5 18  1  0  0  0  0
  6  9  1  0  0  0  0
  7 10  1  0  0  0  0
  8 11  1  0  0  0  0
  9 12  1  0  0  0  0
 10 13  1  0  0  0  0
 11 14  1  0  0  0  0
 12 14  1  0  0  0  0
 13 15  1  0  0  0  0
 15 16  1  0  0  0  0
 16 17  1  0  0  0  0
 17 19  1  0  0  0  0
 18 20  1  0  0  0  0
 19 21  1  0  0  0  0
  1 23  1  0  0  0  0
  2 24  1  0  0  0  0
  4 25  1  0  0  0  0
  4 26  1  0  0  0  0
  4 27  1  0  0  0  0
  5 28  1  0  0  0  0
  5 29  1  0  0  0  0
  5 30  1  0  0  0  0
  6 31  1  0  0  0  0
  6 32  1  0  0  0  0
  7 33  1  0  0  0  0
  7 34  1  0  0  0  0
  8 35  1  0  0  0  0
  8 36  1  0  0  0  0
  9 37  1  0  0  0  0
  9 38  1  0  0  0  0
 10 39  1  0  0  0  0
 10 40  1  0  0  0  0
 11 41  1  0  0  0  0
 11 42  1  0  0  0  0
 12 43  1  0  0  0  0
 12 44  1  0  0  0  0
 13 45  1  0  0  0  0
 13 46  1  0  0  0  0
 14 47  1  0  0  0  0
 14 48  1  0  0  0  0
 15 49  1  0  0  0  0
 15 50  1  0  0  0  0
 16 51  1  0  0  0  0
 16 52  1  0  0  0  0
 17 53  1  0  0  0  0
 17 54  1  0  0  0  0
 18 55  1  0  0  0  0
 18 56  1  0  0  0  0
 19 57  1  0  0  0  0
 19 58  1  0  0  0  0
 20 59  1  0  0  0  0
 21 60  1  0  0  0  0
M  END
> <Name>
IA_105.cdx

> <SourceTag>
IA_105

> <Gold.Version>
5.2

> <Gold.Id.Protein>
6HGV|6HGV_protein|mol2

> <Gold.Goldscore.Fitness>
71.4487

> <Gold.Goldscore.Internal.Vdw>
-6.0313

> <Gold.Goldscore.Internal.Torsion>
-4.3376

> <Gold.Goldscore.External.Vdw>
52.3525

> <Gold.Goldscore.Internal.HBond>
0.0000

> <Gold.Goldscore.External.HBond>
0.0000

> <Gold.Goldscore.Internal.Correction>
-9.8328

> <Gold.Goldscore.Internal.Vdw.Weighted>
-6.0313

> <Gold.Goldscore.Internal.Torsion.Weighted>
-4.3376

> <Gold.Goldscore.External.Vdw.Weighted>
71.9847

> <Gold.Goldscore.Internal.HBond.Weighted>
0.0000

> <Gold.Goldscore.External.HBond.Weighted>
0.0000

> <Gold.Goldscore.Internal.Correction.Weighted>
-9.8328

> <Gold.Protein.RotatedTorsions>
[ 3781 1176 1175 1172 ] final -145.68 input   60.00 | X-H torsion
[ 3847 1247 1246 1244 ] final    5.69 input   60.00 | X-H torsion
[ 4507 1931 1930 1928 ] final   90.99 input   60.00 | X-H torsion
[ 3677 1070 1069 1066 ] final -115.82 input   60.00 | X-H torsion
[ 3525  925  924  922 ] final   58.19 input   59.99 | X-H torsion
[ 4531 1957 1955 1953 ] final   99.83 input   60.00 | X-H torsion

> <Gold.Protein.ActiveResidues>
 PHE267  PRO268  MET310  ASP335  TRP336  MET339  TYR343  THR360  PRO361  ILE363
 PRO371  SER374  ILE375  ASN378  PHE381  TYR383  GLN384  PHE387  LEU408  LEU417
 MET419  LEU428  TYR466  MET469  ASN472  ASP496  VAL498  LEU499  MET503  HIS524
 TRP525

> <Gold.Protein.RotatedAtoms>
   -2.8321  -29.8434  -30.8695 H   0  0  0  0  0  0  0  0  0  0  0  0  # atno 3525 bound_to 925
  -11.5159  -23.6221  -31.4494 H   0  0  0  0  0  0  0  0  0  0  0  0  # atno 3677 bound_to 1070
   -9.2836  -36.3339  -33.3801 H   0  0  0  0  0  0  0  0  0  0  0  0  # atno 3781 bound_to 1176
  -15.6356  -28.7740  -37.0626 H   0  0  0  0  0  0  0  0  0  0  0  0  # atno 3847 bound_to 1247
  -12.4584  -24.2447  -39.0056 H   0  0  0  0  0  0  0  0  0  0  0  0  # atno 4507 bound_to 1931
   -2.6761  -33.9207  -36.7480 H   0  0  0  0  0  0  0  0  0  0  0  0  # atno 4531 bound_to 1957
  -10.1953  -37.2936  -32.4336 LP  0  0  0  0  0  0  0  0  0  0  0  0  # atno 5205 bound_to 1176
  -10.6372  -37.0094  -33.9798 LP  0  0  0  0  0  0  0  0  0  0  0  0  # atno 5206 bound_to 1176
  -15.6230  -27.2549  -37.6460 LP  0  0  0  0  0  0  0  0  0  0  0  0  # atno 5215 bound_to 1247
  -14.3027  -28.2033  -37.8014 LP  0  0  0  0  0  0  0  0  0  0  0  0  # atno 5216 bound_to 1247
  -13.5297  -25.3803  -39.4649 LP  0  0  0  0  0  0  0  0  0  0  0  0  # atno 5217 bound_to 1931
  -13.2110  -24.1115  -40.4422 LP  0  0  0  0  0  0  0  0  0  0  0  0  # atno 5218 bound_to 1931
  -11.5225  -22.2082  -30.6439 LP  0  0  0  0  0  0  0  0  0  0  0  0  # atno 5224 bound_to 1070
  -12.8186  -23.1989  -30.5708 LP  0  0  0  0  0  0  0  0  0  0  0  0  # atno 5225 bound_to 1070

$$$$
IA_105.cdx|SeH_inactivess_minimized|sdf|7|dock9
  -GOLD-   4172118393D 1   1.00000     0.00000

 60 59  0  0  0  0  0  0  0  0  1 V2000
  -16.9482  -25.6075  -36.4440 C   0  0  0  0  0  0  0  0  0  0  0  0
  -15.7407  -25.6549  -35.8623 C   0  0  0  0  0  0  0  0  0  0  0  0
   -6.4366  -29.8688  -34.7758 C   0  0  0  0  0  0  0  0  0  0  0  0
  -23.9626  -22.0739  -36.4571 C   0  0  0  0  0  0  0  0  0  0  0  0
   -3.8491  -31.8366  -34.5103 C   0  0  0  0  0  0  0  0  0  0  0  0
  -17.1689  -25.2326  -37.8807 C   0  0  0  0  0  0  0  0  0  0  0  0
  -14.4595  -25.3385  -36.5776 C   0  0  0  0  0  0  0  0  0  0  0  0
  -23.1556  -22.9593  -37.3942 C   0  0  0  0  0  0  0  0  0  0  0  0
  -18.6533  -25.1595  -38.2541 C   0  0  0  0  0  0  0  0  0  0  0  0
  -13.2160  -25.8176  -35.8203 C   0  0  0  0  0  0  0  0  0  0  0  0
  -21.6703  -23.0350  -37.0349 C   0  0  0  0  0  0  0  0  0  0  0  0
  -19.4152  -24.0785  -37.4810 C   0  0  0  0  0  0  0  0  0  0  0  0
  -11.8709  -25.4579  -36.4634 C   0  0  0  0  0  0  0  0  0  0  0  0
  -20.8911  -24.0411  -37.8850 C   0  0  0  0  0  0  0  0  0  0  0  0
  -10.6248  -25.9344  -35.7105 C   0  0  0  0  0  0  0  0  0  0  0  0
  -10.2719  -27.4150  -35.8811 C   0  0  0  0  0  0  0  0  0  0  0  0
   -9.1551  -27.8851  -34.9483 C   0  0  0  0  0  0  0  0  0  0  0  0
   -4.1589  -30.4848  -33.9635 C   0  0  0  0  0  0  0  0  0  0  0  0
   -8.8449  -29.3623  -35.1597 C   0  0  0  0  0  0  0  0  0  0  0  0
   -5.5805  -30.3133  -33.7717 N   0  0  0  0  0  0  0  0  0  0  0  0
   -7.7563  -29.7924  -34.3260 N   0  0  0  0  0  0  0  0  0  0  0  0
   -6.0799  -29.5794  -35.9172 O   0  0  0  0  0  0  0  0  0  0  0  0
  -17.8323  -25.8546  -35.8615 H   0  0  0  0  0  0  0  0  0  0  0  0
  -15.6620  -25.9334  -34.8144 H   0  0  0  0  0  0  0  0  0  0  0  0
  -25.0028  -22.0205  -36.7943 H   0  0  0  0  0  0  0  0  0  0  0  0
  -23.9571  -22.4725  -35.4378 H   0  0  0  0  0  0  0  0  0  0  0  0
  -23.5703  -21.0531  -36.4326 H   0  0  0  0  0  0  0  0  0  0  0  0
   -4.2176  -32.6223  -33.8419 H   0  0  0  0  0  0  0  0  0  0  0  0
   -4.2950  -31.9681  -35.5022 H   0  0  0  0  0  0  0  0  0  0  0  0
   -2.7637  -31.9580  -34.6081 H   0  0  0  0  0  0  0  0  0  0  0  0
  -16.6570  -25.9316  -38.5534 H   0  0  0  0  0  0  0  0  0  0  0  0
  -16.7155  -24.2482  -38.0479 H   0  0  0  0  0  0  0  0  0  0  0  0
  -14.3793  -24.2658  -36.7877 H   0  0  0  0  0  0  0  0  0  0  0  0
  -14.4853  -25.8395  -37.5532 H   0  0  0  0  0  0  0  0  0  0  0  0
  -23.2730  -22.6037  -38.4244 H   0  0  0  0  0  0  0  0  0  0  0  0
  -23.5727  -23.9729  -37.3598 H   0  0  0  0  0  0  0  0  0  0  0  0
  -19.1084  -26.1367  -38.0500 H   0  0  0  0  0  0  0  0  0  0  0  0
  -18.7562  -24.9828  -39.3322 H   0  0  0  0  0  0  0  0  0  0  0  0
  -13.2811  -26.9047  -35.6924 H   0  0  0  0  0  0  0  0  0  0  0  0
  -13.2318  -25.3962  -34.8064 H   0  0  0  0  0  0  0  0  0  0  0  0
  -21.2179  -22.0403  -37.1308 H   0  0  0  0  0  0  0  0  0  0  0  0
  -21.5876  -23.3187  -35.9783 H   0  0  0  0  0  0  0  0  0  0  0  0
  -19.3331  -24.2705  -36.4044 H   0  0  0  0  0  0  0  0  0  0  0  0
  -18.9683  -23.0962  -37.6714 H   0  0  0  0  0  0  0  0  0  0  0  0
  -11.8263  -24.3689  -36.5849 H   0  0  0  0  0  0  0  0  0  0  0  0
  -11.8361  -25.8652  -37.4812 H   0  0  0  0  0  0  0  0  0  0  0  0
  -21.3295  -25.0395  -37.7684 H   0  0  0  0  0  0  0  0  0  0  0  0
  -20.9653  -23.7741  -38.9451 H   0  0  0  0  0  0  0  0  0  0  0  0
   -9.7611  -25.3332  -36.0174 H   0  0  0  0  0  0  0  0  0  0  0  0
  -10.7691  -25.7263  -34.6427 H   0  0  0  0  0  0  0  0  0  0  0  0
   -9.9574  -27.5697  -36.9210 H   0  0  0  0  0  0  0  0  0  0  0  0
  -11.1638  -28.0347  -35.7348 H   0  0  0  0  0  0  0  0  0  0  0  0
   -8.2496  -27.2906  -35.1229 H   0  0  0  0  0  0  0  0  0  0  0  0
   -9.4407  -27.7251  -33.9022 H   0  0  0  0  0  0  0  0  0  0  0  0
   -3.8185  -29.7055  -34.6520 H   0  0  0  0  0  0  0  0  0  0  0  0
   -3.6717  -30.3369  -32.9953 H   0  0  0  0  0  0  0  0  0  0  0  0
   -8.5598  -29.5598  -36.1978 H   0  0  0  0  0  0  0  0  0  0  0  0
   -9.7114  -29.9846  -34.9145 H   0  0  0  0  0  0  0  0  0  0  0  0
   -5.9743  -30.5272  -32.8607 H   0  0  0  0  0  0  0  0  0  0  0  0
   -7.9595  -30.0983  -33.3759 H   0  0  0  0  0  0  0  0  0  0  0  0
  1  2  2  0  0  0  0
  1  6  1  0  0  0  0
  2  7  1  0  0  0  0
  3 20  1  0  0  0  0
  3 21  1  0  0  0  0
  3 22  2  0  0  0  0
  4  8  1  0  0  0  0
  5 18  1  0  0  0  0
  6  9  1  0  0  0  0
  7 10  1  0  0  0  0
  8 11  1  0  0  0  0
  9 12  1  0  0  0  0
 10 13  1  0  0  0  0
 11 14  1  0  0  0  0
 12 14  1  0  0  0  0
 13 15  1  0  0  0  0
 15 16  1  0  0  0  0
 16 17  1  0  0  0  0
 17 19  1  0  0  0  0
 18 20  1  0  0  0  0
 19 21  1  0  0  0  0
  1 23  1  0  0  0  0
  2 24  1  0  0  0  0
  4 25  1  0  0  0  0
  4 26  1  0  0  0  0
  4 27  1  0  0  0  0
  5 28  1  0  0  0  0
  5 29  1  0  0  0  0
  5 30  1  0  0  0  0
  6 31  1  0  0  0  0
  6 32  1  0  0  0  0
  7 33  1  0  0  0  0
  7 34  1  0  0  0  0
  8 35  1  0  0  0  0
  8 36  1  0  0  0  0
  9 37  1  0  0  0  0
  9 38  1  0  0  0  0
 10 39  1  0  0  0  0
 10 40  1  0  0  0  0
 11 41  1  0  0  0  0
 11 42  1  0  0  0  0
 12 43  1  0  0  0  0
 12 44  1  0  0  0  0
 13 45  1  0  0  0  0
 13 46  1  0  0  0  0
 14 47  1  0  0  0  0
 14 48  1  0  0  0  0
 15 49  1  0  0  0  0
 15 50  1  0  0  0  0
 16 51  1  0  0  0  0
 16 52  1  0  0  0  0
 17 53  1  0  0  0  0
 17 54  1  0  0  0  0
 18 55  1  0  0  0  0
 18 56  1  0  0  0  0
 19 57  1  0  0  0  0
 19 58  1  0  0  0  0
 20 59  1  0  0  0  0
 21 60  1  0  0  0  0
M  END
> <Name>
IA_105.cdx

> <SourceTag>
IA_105

> <Gold.Version>
5.2

> <Gold.Id.Protein>
6HGV|6HGV_protein|mol2

> <Gold.Goldscore.Fitness>
70.9088

> <Gold.Goldscore.Internal.Vdw>
-5.2394

> <Gold.Goldscore.Internal.Torsion>
-5.1946

> <Gold.Goldscore.External.Vdw>
52.1335

> <Gold.Goldscore.Internal.HBond>
0.0000

> <Gold.Goldscore.External.HBond>
0.3994

> <Gold.Goldscore.Internal.Correction>
-9.2599

> <Gold.Goldscore.Hbonds>
donor molecule, donor type, donor heavy atom, donor atom, acceptor molecule, acceptor atom, score
      P1  H  1994  4571       L1    22  0.20

> <Gold.Goldscore.Internal.Vdw.Weighted>
-5.2394

> <Gold.Goldscore.Internal.Torsion.Weighted>
-5.1946

> <Gold.Goldscore.External.Vdw.Weighted>
71.6835

> <Gold.Goldscore.Internal.HBond.Weighted>
0.0000

> <Gold.Goldscore.External.HBond.Weighted>
0.3994

> <Gold.Goldscore.Internal.Correction.Weighted>
-9.2599

> <Gold.Protein.RotatedTorsions>
[ 3781 1176 1175 1172 ] final   41.11 input   60.00 | X-H torsion
[ 3847 1247 1246 1244 ] final  -19.71 input   60.00 | X-H torsion
[ 4507 1931 1930 1928 ] final  -52.90 input   60.00 | X-H torsion
[ 3677 1070 1069 1066 ] final  -98.92 input   60.00 | X-H torsion
[ 3525  925  924  922 ] final    5.14 input   59.99 | X-H torsion
[ 4531 1957 1955 1953 ] final   99.94 input   60.00 | X-H torsion

> <Gold.Protein.ActiveResidues>
 PHE267  PRO268  MET310  ASP335  TRP336  MET339  TYR343  THR360  PRO361  ILE363
 PRO371  SER374  ILE375  ASN378  PHE381  TYR383  GLN384  PHE387  LEU408  LEU417
 MET419  LEU428  TYR466  MET469  ASN472  ASP496  VAL498  LEU499  MET503  HIS524
 TRP525

> <Gold.Protein.RotatedAtoms>
   -3.5479  -29.5613  -30.5418 H   0  0  0  0  0  0  0  0  0  0  0  0  # atno 3525 bound_to 925
  -11.7507  -23.7609  -31.4130 H   0  0  0  0  0  0  0  0  0  0  0  0  # atno 3677 bound_to 1070
  -10.7533  -37.4395  -33.0464 H   0  0  0  0  0  0  0  0  0  0  0  0  # atno 3781 bound_to 1176
  -15.9171  -28.4735  -37.0671 H   0  0  0  0  0  0  0  0  0  0  0  0  # atno 3847 bound_to 1247
  -13.6605  -25.2775  -39.8164 H   0  0  0  0  0  0  0  0  0  0  0  0  # atno 4507 bound_to 1931
   -2.6745  -33.9217  -36.7483 H   0  0  0  0  0  0  0  0  0  0  0  0  # atno 4531 bound_to 1957
   -9.9732  -36.5099  -34.1305 LP  0  0  0  0  0  0  0  0  0  0  0  0  # atno 5205 bound_to 1176
   -9.3792  -36.6798  -32.6189 LP  0  0  0  0  0  0  0  0  0  0  0  0  # atno 5206 bound_to 1176
  -15.2501  -27.1922  -37.8163 LP  0  0  0  0  0  0  0  0  0  0  0  0  # atno 5215 bound_to 1247
  -14.3920  -28.5686  -37.6266 LP  0  0  0  0  0  0  0  0  0  0  0  0  # atno 5216 bound_to 1247
  -12.9475  -23.8851  -40.2645 LP  0  0  0  0  0  0  0  0  0  0  0  0  # atno 5217 bound_to 1931
  -12.5826  -24.5666  -38.8261 LP  0  0  0  0  0  0  0  0  0  0  0  0  # atno 5218 bound_to 1931
  -11.3221  -22.3144  -30.8029 LP  0  0  0  0  0  0  0  0  0  0  0  0  # atno 5224 bound_to 1070
  -12.7827  -22.9529  -30.4484 LP  0  0  0  0  0  0  0  0  0  0  0  0  # atno 5225 bound_to 1070

$$$$
IA_105.cdx|SeH_inactivess_minimized|sdf|7|dock5
  -GOLD-   4172118373D 1   1.00000     0.00000

 60 59  0  0  0  0  0  0  0  0  1 V2000
   -8.5655  -27.3723  -34.8375 C   0  0  0  0  0  0  0  0  0  0  0  0
   -9.4845  -26.4189  -35.0498 C   0  0  0  0  0  0  0  0  0  0  0  0
  -20.6982  -24.6719  -36.2355 C   0  0  0  0  0  0  0  0  0  0  0  0
   -4.0615  -33.1297  -33.4021 C   0  0  0  0  0  0  0  0  0  0  0  0
  -24.0254  -24.5741  -34.5130 C   0  0  0  0  0  0  0  0  0  0  0  0
   -8.6722  -28.7697  -35.3755 C   0  0  0  0  0  0  0  0  0  0  0  0
  -10.7346  -26.6322  -35.8528 C   0  0  0  0  0  0  0  0  0  0  0  0
   -4.0899  -32.7071  -34.8629 C   0  0  0  0  0  0  0  0  0  0  0  0
   -7.6646  -29.7309  -34.7359 C   0  0  0  0  0  0  0  0  0  0  0  0
  -11.9612  -25.9403  -35.2477 C   0  0  0  0  0  0  0  0  0  0  0  0
   -5.2823  -31.8164  -35.2179 C   0  0  0  0  0  0  0  0  0  0  0  0
   -6.2218  -29.4735  -35.1818 C   0  0  0  0  0  0  0  0  0  0  0  0
  -13.2719  -26.1211  -36.0233 C   0  0  0  0  0  0  0  0  0  0  0  0
   -5.2513  -30.4548  -34.5200 C   0  0  0  0  0  0  0  0  0  0  0  0
  -14.5470  -25.7112  -35.2799 C   0  0  0  0  0  0  0  0  0  0  0  0
  -15.7476  -25.3615  -36.1642 C   0  0  0  0  0  0  0  0  0  0  0  0
  -17.0879  -25.4537  -35.4338 C   0  0  0  0  0  0  0  0  0  0  0  0
  -23.1077  -24.3572  -35.6676 C   0  0  0  0  0  0  0  0  0  0  0  0
  -18.2448  -25.0847  -36.3550 C   0  0  0  0  0  0  0  0  0  0  0  0
  -21.7425  -24.6712  -35.3146 N   0  0  0  0  0  0  0  0  0  0  0  0
  -19.4847  -25.0093  -35.6326 N   0  0  0  0  0  0  0  0  0  0  0  0
  -20.8239  -24.4086  -37.4308 O   0  0  0  0  0  0  0  0  0  0  0  0
   -7.6819  -27.1414  -34.2477 H   0  0  0  0  0  0  0  0  0  0  0  0
   -9.3373  -25.4295  -34.6240 H   0  0  0  0  0  0  0  0  0  0  0  0
   -3.2199  -33.8067  -33.2237 H   0  0  0  0  0  0  0  0  0  0  0  0
   -3.9441  -32.2628  -32.7444 H   0  0  0  0  0  0  0  0  0  0  0  0
   -4.9765  -33.6584  -33.1195 H   0  0  0  0  0  0  0  0  0  0  0  0
  -25.0330  -24.2099  -34.7409 H   0  0  0  0  0  0  0  0  0  0  0  0
  -24.0766  -25.6362  -34.2492 H   0  0  0  0  0  0  0  0  0  0  0  0
  -23.6577  -24.0251  -33.6379 H   0  0  0  0  0  0  0  0  0  0  0  0
   -8.5486  -28.7828  -36.4653 H   0  0  0  0  0  0  0  0  0  0  0  0
   -9.6857  -29.1355  -35.1708 H   0  0  0  0  0  0  0  0  0  0  0  0
  -10.9377  -27.7005  -35.9906 H   0  0  0  0  0  0  0  0  0  0  0  0
  -10.5653  -26.2219  -36.8560 H   0  0  0  0  0  0  0  0  0  0  0  0
   -4.0862  -33.5982  -35.5012 H   0  0  0  0  0  0  0  0  0  0  0  0
   -3.1678  -32.1560  -35.0832 H   0  0  0  0  0  0  0  0  0  0  0  0
   -7.9475  -30.7560  -35.0055 H   0  0  0  0  0  0  0  0  0  0  0  0
   -7.7298  -29.6630  -33.6426 H   0  0  0  0  0  0  0  0  0  0  0  0
  -11.7434  -24.8708  -35.1421 H   0  0  0  0  0  0  0  0  0  0  0  0
  -12.1151  -26.3159  -34.2274 H   0  0  0  0  0  0  0  0  0  0  0  0
   -5.3241  -31.6746  -36.3049 H   0  0  0  0  0  0  0  0  0  0  0  0
   -6.2008  -32.3443  -34.9330 H   0  0  0  0  0  0  0  0  0  0  0  0
   -6.1525  -29.5665  -36.2723 H   0  0  0  0  0  0  0  0  0  0  0  0
   -5.9263  -28.4504  -34.9230 H   0  0  0  0  0  0  0  0  0  0  0  0
  -13.3516  -27.1719  -36.3267 H   0  0  0  0  0  0  0  0  0  0  0  0
  -13.2199  -25.5518  -36.9593 H   0  0  0  0  0  0  0  0  0  0  0  0
   -5.5157  -30.5766  -33.4627 H   0  0  0  0  0  0  0  0  0  0  0  0
   -4.2390  -30.0368  -34.5570 H   0  0  0  0  0  0  0  0  0  0  0  0
  -14.8425  -26.5127  -34.5930 H   0  0  0  0  0  0  0  0  0  0  0  0
  -14.3114  -24.8468  -34.6461 H   0  0  0  0  0  0  0  0  0  0  0  0
  -15.7553  -26.0563  -37.0136 H   0  0  0  0  0  0  0  0  0  0  0  0
  -15.6241  -24.3589  -36.5890 H   0  0  0  0  0  0  0  0  0  0  0  0
  -17.2334  -26.4713  -35.0504 H   0  0  0  0  0  0  0  0  0  0  0  0
  -17.0945  -24.7853  -34.5651 H   0  0  0  0  0  0  0  0  0  0  0  0
  -23.1372  -23.3119  -35.9897 H   0  0  0  0  0  0  0  0  0  0  0  0
  -23.3886  -24.9940  -36.5116 H   0  0  0  0  0  0  0  0  0  0  0  0
  -18.3716  -25.8310  -37.1456 H   0  0  0  0  0  0  0  0  0  0  0  0
  -18.0782  -24.1094  -36.8234 H   0  0  0  0  0  0  0  0  0  0  0  0
  -21.5344  -24.9025  -34.3482 H   0  0  0  0  0  0  0  0  0  0  0  0
  -19.4743  -25.1652  -34.6261 H   0  0  0  0  0  0  0  0  0  0  0  0
  1  2  2  0  0  0  0
  1  6  1  0  0  0  0
  2  7  1  0  0  0  0
  3 20  1  0  0  0  0
  3 21  1  0  0  0  0
  3 22  2  0  0  0  0
  4  8  1  0  0  0  0
  5 18  1  0  0  0  0
  6  9  1  0  0  0  0
  7 10  1  0  0  0  0
  8 11  1  0  0  0  0
  9 12  1  0  0  0  0
 10 13  1  0  0  0  0
 11 14  1  0  0  0  0
 12 14  1  0  0  0  0
 13 15  1  0  0  0  0
 15 16  1  0  0  0  0
 16 17  1  0  0  0  0
 17 19  1  0  0  0  0
 18 20  1  0  0  0  0
 19 21  1  0  0  0  0
  1 23  1  0  0  0  0
  2 24  1  0  0  0  0
  4 25  1  0  0  0  0
  4 26  1  0  0  0  0
  4 27  1  0  0  0  0
  5 28  1  0  0  0  0
  5 29  1  0  0  0  0
  5 30  1  0  0  0  0
  6 31  1  0  0  0  0
  6 32  1  0  0  0  0
  7 33  1  0  0  0  0
  7 34  1  0  0  0  0
  8 35  1  0  0  0  0
  8 36  1  0  0  0  0
  9 37  1  0  0  0  0
  9 38  1  0  0  0  0
 10 39  1  0  0  0  0
 10 40  1  0  0  0  0
 11 41  1  0  0  0  0
 11 42  1  0  0  0  0
 12 43  1  0  0  0  0
 12 44  1  0  0  0  0
 13 45  1  0  0  0  0
 13 46  1  0  0  0  0
 14 47  1  0  0  0  0
 14 48  1  0  0  0  0
 15 49  1  0  0  0  0
 15 50  1  0  0  0  0
 16 51  1  0  0  0  0
 16 52  1  0  0  0  0
 17 53  1  0  0  0  0
 17 54  1  0  0  0  0
 18 55  1  0  0  0  0
 18 56  1  0  0  0  0
 19 57  1  0  0  0  0
 19 58  1  0  0  0  0
 20 59  1  0  0  0  0
 21 60  1  0  0  0  0
M  END
> <Name>
IA_105.cdx

> <SourceTag>
IA_105

> <Gold.Version>
5.2

> <Gold.Id.Protein>
6HGV|6HGV_protein|mol2

> <Gold.Goldscore.Fitness>
70.5793

> <Gold.Goldscore.Internal.Vdw>
-10.3804

> <Gold.Goldscore.Internal.Torsion>
-6.8099

> <Gold.Goldscore.External.Vdw>
54.7053

> <Gold.Goldscore.Internal.HBond>
0.0000

> <Gold.Goldscore.External.HBond>
3.1314

> <Gold.Goldscore.Internal.Correction>
-9.4184

> <Gold.Goldscore.Hbonds>
donor molecule, donor type, donor heavy atom, donor atom, acceptor molecule, acceptor atom, score
      L1  H    20    59       P1  2185  0.09
      L1  H    21    60       P1  2185  0.43

> <Gold.Goldscore.Internal.Vdw.Weighted>
-10.3804

> <Gold.Goldscore.Internal.Torsion.Weighted>
-6.8099

> <Gold.Goldscore.External.Vdw.Weighted>
75.2198

> <Gold.Goldscore.Internal.HBond.Weighted>
0.0000

> <Gold.Goldscore.External.HBond.Weighted>
3.1314

> <Gold.Goldscore.Internal.Correction.Weighted>
-9.4184

> <Gold.Protein.RotatedTorsions>
[ 3781 1176 1175 1172 ] final  115.61 input   60.00 | X-H torsion
[ 3847 1247 1246 1244 ] final  -10.89 input   60.00 | X-H torsion
[ 4507 1931 1930 1928 ] final  -34.17 input   60.00 | X-H torsion
[ 3677 1070 1069 1066 ] final  -84.81 input   60.00 | X-H torsion
[ 3525  925  924  922 ] final   29.08 input   59.99 | X-H torsion
[ 4531 1957 1955 1953 ] final  -82.77 input   60.00 | X-H torsion

> <Gold.Protein.ActiveResidues>
 PHE267  PRO268  MET310  ASP335  TRP336  MET339  TYR343  THR360  PRO361  ILE363
 PRO371  SER374  ILE375  ASN378  PHE381  TYR383  GLN384  PHE387  LEU408  LEU417
 MET419  LEU428  TYR466  MET469  ASN472  ASP496  VAL498  LEU499  MET503  HIS524
 TRP525

> <Gold.Protein.RotatedAtoms>
   -3.2583  -29.6659  -30.7785 H   0  0  0  0  0  0  0  0  0  0  0  0  # atno 3525 bound_to 925
  -11.9610  -23.8275  -31.3476 H   0  0  0  0  0  0  0  0  0  0  0  0  # atno 3677 bound_to 1070
   -9.8995  -37.1226  -32.3717 H   0  0  0  0  0  0  0  0  0  0  0  0  # atno 3781 bound_to 1176
  -15.8330  -28.5900  -37.0555 H   0  0  0  0  0  0  0  0  0  0  0  0  # atno 3847 bound_to 1247
  -13.5618  -25.3659  -39.5422 H   0  0  0  0  0  0  0  0  0  0  0  0  # atno 4507 bound_to 1931
   -1.6475  -32.3656  -36.9166 H   0  0  0  0  0  0  0  0  0  0  0  0  # atno 4531 bound_to 1957
  -10.7882  -37.2028  -33.7325 LP  0  0  0  0  0  0  0  0  0  0  0  0  # atno 5205 bound_to 1176
   -9.4239  -36.3060  -33.6965 LP  0  0  0  0  0  0  0  0  0  0  0  0  # atno 5206 bound_to 1176
  -15.3849  -27.1945  -37.7625 LP  0  0  0  0  0  0  0  0  0  0  0  0  # atno 5215 bound_to 1247
  -14.3420  -28.4491  -37.6919 LP  0  0  0  0  0  0  0  0  0  0  0  0  # atno 5216 bound_to 1247
  -13.1546  -24.0542  -40.4148 LP  0  0  0  0  0  0  0  0  0  0  0  0  # atno 5217 bound_to 1931
  -12.4749  -24.3084  -38.9519 LP  0  0  0  0  0  0  0  0  0  0  0  0  # atno 5218 bound_to 1931
  -11.1957  -22.4498  -30.9421 LP  0  0  0  0  0  0  0  0  0  0  0  0  # atno 5224 bound_to 1070
  -12.6973  -22.7504  -30.3751 LP  0  0  0  0  0  0  0  0  0  0  0  0  # atno 5225 bound_to 1070

$$$$
IA_105.cdx|SeH_inactivess_minimized|sdf|7|dock1
  -GOLD-   4172118363D 1   1.00000     0.00000

 60 59  0  0  0  0  0  0  0  0  1 V2000
  -12.2802  -25.3744  -35.3550 C   0  0  0  0  0  0  0  0  0  0  0  0
  -11.2287  -25.5267  -34.5366 C   0  0  0  0  0  0  0  0  0  0  0  0
   -5.3819  -34.9925  -33.8740 C   0  0  0  0  0  0  0  0  0  0  0  0
  -17.2979  -24.1344  -40.9485 C   0  0  0  0  0  0  0  0  0  0  0  0
   -5.4697  -38.2111  -32.0454 C   0  0  0  0  0  0  0  0  0  0  0  0
  -12.3274  -25.8992  -36.7606 C   0  0  0  0  0  0  0  0  0  0  0  0
   -9.9678  -26.2418  -34.9262 C   0  0  0  0  0  0  0  0  0  0  0  0
  -17.5433  -23.5154  -39.5810 C   0  0  0  0  0  0  0  0  0  0  0  0
  -13.7564  -26.0281  -37.2988 C   0  0  0  0  0  0  0  0  0  0  0  0
  -10.0116  -27.7434  -34.6214 C   0  0  0  0  0  0  0  0  0  0  0  0
  -16.2869  -23.4378  -38.7113 C   0  0  0  0  0  0  0  0  0  0  0  0
  -14.4437  -24.6754  -37.5096 C   0  0  0  0  0  0  0  0  0  0  0  0
   -8.7462  -28.5293  -34.9865 C   0  0  0  0  0  0  0  0  0  0  0  0
  -15.6459  -24.8023  -38.4485 C   0  0  0  0  0  0  0  0  0  0  0  0
   -8.8048  -30.0392  -34.7347 C   0  0  0  0  0  0  0  0  0  0  0  0
   -7.4816  -30.7920  -34.9030 C   0  0  0  0  0  0  0  0  0  0  0  0
   -7.5591  -32.2595  -34.4803 C   0  0  0  0  0  0  0  0  0  0  0  0
   -4.7390  -37.1466  -32.7907 C   0  0  0  0  0  0  0  0  0  0  0  0
   -6.4091  -33.0657  -35.0725 C   0  0  0  0  0  0  0  0  0  0  0  0
   -5.6513  -36.3182  -33.5448 N   0  0  0  0  0  0  0  0  0  0  0  0
   -6.4276  -34.4242  -34.6044 N   0  0  0  0  0  0  0  0  0  0  0  0
   -4.3533  -34.3932  -33.5634 O   0  0  0  0  0  0  0  0  0  0  0  0
  -13.1621  -24.8471  -34.9999 H   0  0  0  0  0  0  0  0  0  0  0  0
  -11.2691  -25.1152  -33.5311 H   0  0  0  0  0  0  0  0  0  0  0  0
  -18.1878  -24.0225  -41.5762 H   0  0  0  0  0  0  0  0  0  0  0  0
  -16.4612  -23.6451  -41.4569 H   0  0  0  0  0  0  0  0  0  0  0  0
  -17.0799  -25.2036  -40.8716 H   0  0  0  0  0  0  0  0  0  0  0  0
   -4.7695  -38.9159  -31.5840 H   0  0  0  0  0  0  0  0  0  0  0  0
   -6.1080  -37.7758  -31.2688 H   0  0  0  0  0  0  0  0  0  0  0  0
   -6.1106  -38.7738  -32.7345 H   0  0  0  0  0  0  0  0  0  0  0  0
  -11.8196  -26.8685  -36.8365 H   0  0  0  0  0  0  0  0  0  0  0  0
  -11.7719  -25.2037  -37.4012 H   0  0  0  0  0  0  0  0  0  0  0  0
   -9.0926  -25.7883  -34.4469 H   0  0  0  0  0  0  0  0  0  0  0  0
   -9.8261  -26.1116  -36.0061 H   0  0  0  0  0  0  0  0  0  0  0  0
  -18.3245  -24.0801  -39.0592 H   0  0  0  0  0  0  0  0  0  0  0  0
  -17.9294  -22.4990  -39.7239 H   0  0  0  0  0  0  0  0  0  0  0  0
  -14.3410  -26.6220  -36.5852 H   0  0  0  0  0  0  0  0  0  0  0  0
  -13.7480  -26.5879  -38.2426 H   0  0  0  0  0  0  0  0  0  0  0  0
  -10.8750  -28.1803  -35.1374 H   0  0  0  0  0  0  0  0  0  0  0  0
  -10.2021  -27.8841  -33.5492 H   0  0  0  0  0  0  0  0  0  0  0  0
  -15.5553  -22.7693  -39.1816 H   0  0  0  0  0  0  0  0  0  0  0  0
  -16.5617  -22.9804  -37.7527 H   0  0  0  0  0  0  0  0  0  0  0  0
  -14.7726  -24.2762  -36.5425 H   0  0  0  0  0  0  0  0  0  0  0  0
  -13.7339  -23.9564  -37.9340 H   0  0  0  0  0  0  0  0  0  0  0  0
   -7.9022  -28.1021  -34.4315 H   0  0  0  0  0  0  0  0  0  0  0  0
   -8.5108  -28.3646  -36.0450 H   0  0  0  0  0  0  0  0  0  0  0  0
  -16.3874  -25.4788  -38.0068 H   0  0  0  0  0  0  0  0  0  0  0  0
  -15.3168  -25.2507  -39.3926 H   0  0  0  0  0  0  0  0  0  0  0  0
   -9.1853  -30.2260  -33.7239 H   0  0  0  0  0  0  0  0  0  0  0  0
   -9.5467  -30.4720  -35.4177 H   0  0  0  0  0  0  0  0  0  0  0  0
   -6.7240  -30.2842  -34.2927 H   0  0  0  0  0  0  0  0  0  0  0  0
   -7.1369  -30.7218  -35.9409 H   0  0  0  0  0  0  0  0  0  0  0  0
   -7.5347  -32.3333  -33.3860 H   0  0  0  0  0  0  0  0  0  0  0  0
   -8.5093  -32.6991  -34.8051 H   0  0  0  0  0  0  0  0  0  0  0  0
   -4.0301  -37.5903  -33.4963 H   0  0  0  0  0  0  0  0  0  0  0  0
   -4.1908  -36.4972  -32.1019 H   0  0  0  0  0  0  0  0  0  0  0  0
   -5.4423  -32.6361  -34.7920 H   0  0  0  0  0  0  0  0  0  0  0  0
   -6.4712  -33.0944  -36.1650 H   0  0  0  0  0  0  0  0  0  0  0  0
   -6.5314  -36.7224  -33.8494 H   0  0  0  0  0  0  0  0  0  0  0  0
   -7.2186  -35.0160  -34.8526 H   0  0  0  0  0  0  0  0  0  0  0  0
  1  2  2  0  0  0  0
  1  6  1  0  0  0  0
  2  7  1  0  0  0  0
  3 20  1  0  0  0  0
  3 21  1  0  0  0  0
  3 22  2  0  0  0  0
  4  8  1  0  0  0  0
  5 18  1  0  0  0  0
  6  9  1  0  0  0  0
  7 10  1  0  0  0  0
  8 11  1  0  0  0  0
  9 12  1  0  0  0  0
 10 13  1  0  0  0  0
 11 14  1  0  0  0  0
 12 14  1  0  0  0  0
 13 15  1  0  0  0  0
 15 16  1  0  0  0  0
 16 17  1  0  0  0  0
 17 19  1  0  0  0  0
 18 20  1  0  0  0  0
 19 21  1  0  0  0  0
  1 23  1  0  0  0  0
  2 24  1  0  0  0  0
  4 25  1  0  0  0  0
  4 26  1  0  0  0  0
  4 27  1  0  0  0  0
  5 28  1  0  0  0  0
  5 29  1  0  0  0  0
  5 30  1  0  0  0  0
  6 31  1  0  0  0  0
  6 32  1  0  0  0  0
  7 33  1  0  0  0  0
  7 34  1  0  0  0  0
  8 35  1  0  0  0  0
  8 36  1  0  0  0  0
  9 37  1  0  0  0  0
  9 38  1  0  0  0  0
 10 39  1  0  0  0  0
 10 40  1  0  0  0  0
 11 41  1  0  0  0  0
 11 42  1  0  0  0  0
 12 43  1  0  0  0  0
 12 44  1  0  0  0  0
 13 45  1  0  0  0  0
 13 46  1  0  0  0  0
 14 47  1  0  0  0  0
 14 48  1  0  0  0  0
 15 49  1  0  0  0  0
 15 50  1  0  0  0  0
 16 51  1  0  0  0  0
 16 52  1  0  0  0  0
 17 53  1  0  0  0  0
 17 54  1  0  0  0  0
 18 55  1  0  0  0  0
 18 56  1  0  0  0  0
 19 57  1  0  0  0  0
 19 58  1  0  0  0  0
 20 59  1  0  0  0  0
 21 60  1  0  0  0  0
M  END
> <Name>
IA_105.cdx

> <SourceTag>
IA_105

> <Gold.Version>
5.2

> <Gold.Id.Protein>
6HGV|6HGV_protein|mol2

> <Gold.Goldscore.Fitness>
70.3284

> <Gold.Goldscore.Internal.Vdw>
-7.7110

> <Gold.Goldscore.Internal.Torsion>
-5.2930

> <Gold.Goldscore.External.Vdw>
52.4965

> <Gold.Goldscore.Internal.HBond>
0.0000

> <Gold.Goldscore.External.HBond>
0.0000

> <Gold.Goldscore.Internal.Correction>
-11.1497

> <Gold.Goldscore.Internal.Vdw.Weighted>
-7.7110

> <Gold.Goldscore.Internal.Torsion.Weighted>
-5.2930

> <Gold.Goldscore.External.Vdw.Weighted>
72.1827

> <Gold.Goldscore.Internal.HBond.Weighted>
0.0000

> <Gold.Goldscore.External.HBond.Weighted>
0.0000

> <Gold.Goldscore.Internal.Correction.Weighted>
-11.1497

> <Gold.Protein.RotatedTorsions>
[ 3781 1176 1175 1172 ] final -119.79 input   60.00 | X-H torsion
[ 3847 1247 1246 1244 ] final  -20.22 input   60.00 | X-H torsion
[ 4507 1931 1930 1928 ] final -129.10 input   60.00 | X-H torsion
[ 3677 1070 1069 1066 ] final -108.38 input   60.00 | X-H torsion
[ 3525  925  924  922 ] final   51.04 input   59.99 | X-H torsion
[ 4531 1957 1955 1953 ] final   65.14 input   60.00 | X-H torsion

> <Gold.Protein.ActiveResidues>
 PHE267  PRO268  MET310  ASP335  TRP336  MET339  TYR343  THR360  PRO361  ILE363
 PRO371  SER374  ILE375  ASN378  PHE381  TYR383  GLN384  PHE387  LEU408  LEU417
 MET419  LEU428  TYR466  MET469  ASN472  ASP496  VAL498  LEU499  MET503  HIS524
 TRP525

> <Gold.Protein.RotatedAtoms>
   -2.9391  -29.7968  -30.8691 H   0  0  0  0  0  0  0  0  0  0  0  0  # atno 3525 bound_to 925
  -11.6158  -23.6906  -31.4392 H   0  0  0  0  0  0  0  0  0  0  0  0  # atno 3677 bound_to 1070
   -9.4698  -36.3175  -33.7557 H   0  0  0  0  0  0  0  0  0  0  0  0  # atno 3781 bound_to 1176
  -15.9214  -28.4665  -37.0680 H   0  0  0  0  0  0  0  0  0  0  0  0  # atno 3847 bound_to 1247
  -13.4093  -24.3661  -40.4804 H   0  0  0  0  0  0  0  0  0  0  0  0  # atno 4507 bound_to 1931
   -3.0282  -33.4940  -36.6736 H   0  0  0  0  0  0  0  0  0  0  0  0  # atno 4531 bound_to 1957
   -9.8371  -37.0801  -32.3659 LP  0  0  0  0  0  0  0  0  0  0  0  0  # atno 5205 bound_to 1176
  -10.8078  -37.2395  -33.6693 LP  0  0  0  0  0  0  0  0  0  0  0  0  # atno 5206 bound_to 1176
  -15.2423  -27.1927  -37.8192 LP  0  0  0  0  0  0  0  0  0  0  0  0  # atno 5215 bound_to 1247
  -14.3955  -28.5751  -37.6227 LP  0  0  0  0  0  0  0  0  0  0  0  0  # atno 5216 bound_to 1247
  -12.4296  -24.0118  -39.2304 LP  0  0  0  0  0  0  0  0  0  0  0  0  # atno 5217 bound_to 1931
  -13.3534  -25.3578  -39.1915 LP  0  0  0  0  0  0  0  0  0  0  0  0  # atno 5218 bound_to 1931
  -11.4286  -22.2469  -30.7121 LP  0  0  0  0  0  0  0  0  0  0  0  0  # atno 5224 bound_to 1070
  -12.8120  -23.0913  -30.5128 LP  0  0  0  0  0  0  0  0  0  0  0  0  # atno 5225 bound_to 1070

$$$$
IA_105.cdx|SeH_inactivess_minimized|sdf|7|dock4
  -GOLD-   4172118373D 1   1.00000     0.00000

 60 59  0  0  0  0  0  0  0  0  1 V2000
  -12.2856  -25.3068  -36.7595 C   0  0  0  0  0  0  0  0  0  0  0  0
  -11.2230  -25.6082  -35.9987 C   0  0  0  0  0  0  0  0  0  0  0  0
   -6.1171  -34.4635  -34.4343 C   0  0  0  0  0  0  0  0  0  0  0  0
  -21.1011  -24.1972  -37.3087 C   0  0  0  0  0  0  0  0  0  0  0  0
   -5.1249  -36.9072  -31.8923 C   0  0  0  0  0  0  0  0  0  0  0  0
  -13.6812  -25.7770  -36.4689 C   0  0  0  0  0  0  0  0  0  0  0  0
  -11.2990  -26.4540  -34.7610 C   0  0  0  0  0  0  0  0  0  0  0  0
  -19.6846  -23.9072  -37.7808 C   0  0  0  0  0  0  0  0  0  0  0  0
  -14.7455  -24.9945  -37.2455 C   0  0  0  0  0  0  0  0  0  0  0  0
   -9.9353  -27.0004  -34.3236 C   0  0  0  0  0  0  0  0  0  0  0  0
  -18.6136  -24.6839  -37.0122 C   0  0  0  0  0  0  0  0  0  0  0  0
  -16.1669  -25.2377  -36.7288 C   0  0  0  0  0  0  0  0  0  0  0  0
   -9.3722  -28.1382  -35.1840 C   0  0  0  0  0  0  0  0  0  0  0  0
  -17.1955  -24.4377  -37.5320 C   0  0  0  0  0  0  0  0  0  0  0  0
   -8.2422  -28.9554  -34.5499 C   0  0  0  0  0  0  0  0  0  0  0  0
   -7.7862  -30.1841  -35.3425 C   0  0  0  0  0  0  0  0  0  0  0  0
   -6.9415  -31.1584  -34.5207 C   0  0  0  0  0  0  0  0  0  0  0  0
   -5.5822  -36.6101  -33.2797 C   0  0  0  0  0  0  0  0  0  0  0  0
   -6.2476  -32.1781  -35.4162 C   0  0  0  0  0  0  0  0  0  0  0  0
   -5.2761  -35.2473  -33.6489 N   0  0  0  0  0  0  0  0  0  0  0  0
   -5.5840  -33.1894  -34.6404 N   0  0  0  0  0  0  0  0  0  0  0  0
   -7.1952  -34.8413  -34.8911 O   0  0  0  0  0  0  0  0  0  0  0  0
  -12.1528  -24.6841  -37.6407 H   0  0  0  0  0  0  0  0  0  0  0  0
  -10.2418  -25.2314  -36.2765 H   0  0  0  0  0  0  0  0  0  0  0  0
  -21.8175  -23.6015  -37.8836 H   0  0  0  0  0  0  0  0  0  0  0  0
  -21.3524  -25.2537  -37.4454 H   0  0  0  0  0  0  0  0  0  0  0  0
  -21.2321  -23.9431  -36.2529 H   0  0  0  0  0  0  0  0  0  0  0  0
   -5.5321  -36.1791  -31.1823 H   0  0  0  0  0  0  0  0  0  0  0  0
   -5.4276  -37.9154  -31.5889 H   0  0  0  0  0  0  0  0  0  0  0  0
   -4.0309  -36.8526  -31.8420 H   0  0  0  0  0  0  0  0  0  0  0  0
  -13.8994  -25.7236  -35.3952 H   0  0  0  0  0  0  0  0  0  0  0  0
  -13.7481  -26.8351  -36.7496 H   0  0  0  0  0  0  0  0  0  0  0  0
  -12.0087  -27.2792  -34.8898 H   0  0  0  0  0  0  0  0  0  0  0  0
  -11.6986  -25.8314  -33.9510 H   0  0  0  0  0  0  0  0  0  0  0  0
  -19.4889  -22.8311  -37.7096 H   0  0  0  0  0  0  0  0  0  0  0  0
  -19.6108  -24.1728  -38.8422 H   0  0  0  0  0  0  0  0  0  0  0  0
  -14.6899  -25.2911  -38.3003 H   0  0  0  0  0  0  0  0  0  0  0  0
  -14.5183  -23.9216  -37.2074 H   0  0  0  0  0  0  0  0  0  0  0  0
  -10.0091  -27.3323  -33.2811 H   0  0  0  0  0  0  0  0  0  0  0  0
   -9.2056  -26.1798  -34.3247 H   0  0  0  0  0  0  0  0  0  0  0  0
  -18.6674  -24.4276  -35.9469 H   0  0  0  0  0  0  0  0  0  0  0  0
  -18.8436  -25.7537  -37.0912 H   0  0  0  0  0  0  0  0  0  0  0  0
  -16.4022  -26.3070  -36.7912 H   0  0  0  0  0  0  0  0  0  0  0  0
  -16.2365  -24.9502  -35.6736 H   0  0  0  0  0  0  0  0  0  0  0  0
   -9.0234  -27.7136  -36.1331 H   0  0  0  0  0  0  0  0  0  0  0  0
  -10.1846  -28.8239  -35.4539 H   0  0  0  0  0  0  0  0  0  0  0  0
  -17.1365  -24.7208  -38.5898 H   0  0  0  0  0  0  0  0  0  0  0  0
  -16.9509  -23.3717  -37.4654 H   0  0  0  0  0  0  0  0  0  0  0  0
   -7.3739  -28.3080  -34.3816 H   0  0  0  0  0  0  0  0  0  0  0  0
   -8.5706  -29.2793  -33.5541 H   0  0  0  0  0  0  0  0  0  0  0  0
   -7.1958  -29.8339  -36.1986 H   0  0  0  0  0  0  0  0  0  0  0  0
   -8.6539  -30.7063  -35.7613 H   0  0  0  0  0  0  0  0  0  0  0  0
   -6.1905  -30.6046  -33.9437 H   0  0  0  0  0  0  0  0  0  0  0  0
   -7.5696  -31.6878  -33.7949 H   0  0  0  0  0  0  0  0  0  0  0  0
   -6.6650  -36.7434  -33.3633 H   0  0  0  0  0  0  0  0  0  0  0  0
   -5.0893  -37.2693  -34.0003 H   0  0  0  0  0  0  0  0  0  0  0  0
   -5.4906  -31.6988  -36.0449 H   0  0  0  0  0  0  0  0  0  0  0  0
   -6.9680  -32.6840  -36.0669 H   0  0  0  0  0  0  0  0  0  0  0  0
   -4.4057  -34.8415  -33.3195 H   0  0  0  0  0  0  0  0  0  0  0  0
   -4.7053  -32.9554  -34.1815 H   0  0  0  0  0  0  0  0  0  0  0  0
  1  2  2  0  0  0  0
  1  6  1  0  0  0  0
  2  7  1  0  0  0  0
  3 20  1  0  0  0  0
  3 21  1  0  0  0  0
  3 22  2  0  0  0  0
  4  8  1  0  0  0  0
  5 18  1  0  0  0  0
  6  9  1  0  0  0  0
  7 10  1  0  0  0  0
  8 11  1  0  0  0  0
  9 12  1  0  0  0  0
 10 13  1  0  0  0  0
 11 14  1  0  0  0  0
 12 14  1  0  0  0  0
 13 15  1  0  0  0  0
 15 16  1  0  0  0  0
 16 17  1  0  0  0  0
 17 19  1  0  0  0  0
 18 20  1  0  0  0  0
 19 21  1  0  0  0  0
  1 23  1  0  0  0  0
  2 24  1  0  0  0  0
  4 25  1  0  0  0  0
  4 26  1  0  0  0  0
  4 27  1  0  0  0  0
  5 28  1  0  0  0  0
  5 29  1  0  0  0  0
  5 30  1  0  0  0  0
  6 31  1  0  0  0  0
  6 32  1  0  0  0  0
  7 33  1  0  0  0  0
  7 34  1  0  0  0  0
  8 35  1  0  0  0  0
  8 36  1  0  0  0  0
  9 37  1  0  0  0  0
  9 38  1  0  0  0  0
 10 39  1  0  0  0  0
 10 40  1  0  0  0  0
 11 41  1  0  0  0  0
 11 42  1  0  0  0  0
 12 43  1  0  0  0  0
 12 44  1  0  0  0  0
 13 45  1  0  0  0  0
 13 46  1  0  0  0  0
 14 47  1  0  0  0  0
 14 48  1  0  0  0  0
 15 49  1  0  0  0  0
 15 50  1  0  0  0  0
 16 51  1  0  0  0  0
 16 52  1  0  0  0  0
 17 53  1  0  0  0  0
 17 54  1  0  0  0  0
 18 55  1  0  0  0  0
 18 56  1  0  0  0  0
 19 57  1  0  0  0  0
 19 58  1  0  0  0  0
 20 59  1  0  0  0  0
 21 60  1  0  0  0  0
M  END
> <Name>
IA_105.cdx

> <SourceTag>
IA_105

> <Gold.Version>
5.2

> <Gold.Id.Protein>
6HGV|6HGV_protein|mol2

> <Gold.Goldscore.Fitness>
69.7271

> <Gold.Goldscore.Internal.Vdw>
-5.5418

> <Gold.Goldscore.Internal.Torsion>
-5.9352

> <Gold.Goldscore.External.Vdw>
52.2078

> <Gold.Goldscore.Internal.HBond>
0.0000

> <Gold.Goldscore.External.HBond>
0.0000

> <Gold.Goldscore.Internal.Correction>
-9.4184

> <Gold.Goldscore.Internal.Vdw.Weighted>
-5.5418

> <Gold.Goldscore.Internal.Torsion.Weighted>
-5.9352

> <Gold.Goldscore.External.Vdw.Weighted>
71.7857

> <Gold.Goldscore.Internal.HBond.Weighted>
0.0000

> <Gold.Goldscore.External.HBond.Weighted>
0.0000

> <Gold.Goldscore.Internal.Correction.Weighted>
-9.4184

> <Gold.Protein.RotatedTorsions>
[ 3781 1176 1175 1172 ] final -164.67 input   60.00 | X-H torsion
[ 3847 1247 1246 1244 ] final   61.59 input   60.00 | X-H torsion
[ 4507 1931 1930 1928 ] final -137.29 input   60.00 | X-H torsion
[ 3677 1070 1069 1066 ] final -121.34 input   60.00 | X-H torsion
[ 3525  925  924  922 ] final   11.14 input   59.99 | X-H torsion
[ 4531 1957 1955 1953 ] final   48.20 input   60.00 | X-H torsion

> <Gold.Protein.ActiveResidues>
 PHE267  PRO268  MET310  ASP335  TRP336  MET339  TYR343  THR360  PRO361  ILE363
 PRO371  SER374  ILE375  ASN378  PHE381  TYR383  GLN384  PHE387  LEU408  LEU417
 MET419  LEU428  TYR466  MET469  ASN472  ASP496  VAL498  LEU499  MET503  HIS524
 TRP525

> <Gold.Protein.RotatedAtoms>
   -3.4838  -29.5827  -30.6129 H   0  0  0  0  0  0  0  0  0  0  0  0  # atno 3525 bound_to 925
  -11.4465  -23.5647  -31.4508 H   0  0  0  0  0  0  0  0  0  0  0  0  # atno 3677 bound_to 1070
   -9.2421  -36.4166  -33.0854 H   0  0  0  0  0  0  0  0  0  0  0  0  # atno 3781 bound_to 1176
  -14.8125  -28.9191  -37.3302 H   0  0  0  0  0  0  0  0  0  0  0  0  # atno 3847 bound_to 1247
  -13.3303  -24.2583  -40.4750 H   0  0  0  0  0  0  0  0  0  0  0  0  # atno 4507 bound_to 1931
   -3.0944  -33.2268  -36.6564 H   0  0  0  0  0  0  0  0  0  0  0  0  # atno 4531 bound_to 1957
  -10.4417  -37.3989  -32.5915 LP  0  0  0  0  0  0  0  0  0  0  0  0  # atno 5205 bound_to 1176
  -10.4325  -36.8208  -34.1187 LP  0  0  0  0  0  0  0  0  0  0  0  0  # atno 5206 bound_to 1176
  -16.0701  -27.8917  -37.2269 LP  0  0  0  0  0  0  0  0  0  0  0  0  # atno 5215 bound_to 1247
  -14.6845  -27.4204  -37.9510 LP  0  0  0  0  0  0  0  0  0  0  0  0  # atno 5216 bound_to 1247
  -12.4312  -24.0993  -39.1280 LP  0  0  0  0  0  0  0  0  0  0  0  0  # atno 5217 bound_to 1931
  -13.4314  -25.3787  -39.2993 LP  0  0  0  0  0  0  0  0  0  0  0  0  # atno 5218 bound_to 1931
  -11.5969  -22.1883  -30.5959 LP  0  0  0  0  0  0  0  0  0  0  0  0  # atno 5224 bound_to 1070
  -12.8141  -23.2766  -30.6173 LP  0  0  0  0  0  0  0  0  0  0  0  0  # atno 5225 bound_to 1070

$$$$
IA_105.cdx|SeH_inactivess_minimized|sdf|7|dock3
  -GOLD-   4172118373D 1   1.00000     0.00000

 60 59  0  0  0  0  0  0  0  0  1 V2000
  -16.8065  -25.1477  -35.8034 C   0  0  0  0  0  0  0  0  0  0  0  0
  -15.5470  -25.6079  -35.7807 C   0  0  0  0  0  0  0  0  0  0  0  0
   -6.8595  -30.4134  -35.2085 C   0  0  0  0  0  0  0  0  0  0  0  0
  -24.0687  -22.6232  -36.6104 C   0  0  0  0  0  0  0  0  0  0  0  0
   -4.0551  -32.1154  -34.2515 C   0  0  0  0  0  0  0  0  0  0  0  0
  -17.4124  -24.4299  -36.9744 C   0  0  0  0  0  0  0  0  0  0  0  0
  -14.5869  -25.4616  -36.9252 C   0  0  0  0  0  0  0  0  0  0  0  0
  -22.6779  -22.6636  -37.2247 C   0  0  0  0  0  0  0  0  0  0  0  0
  -18.3760  -25.3105  -37.7770 C   0  0  0  0  0  0  0  0  0  0  0  0
  -13.2106  -26.0707  -36.6348 C   0  0  0  0  0  0  0  0  0  0  0  0
  -21.9435  -23.9847  -36.9871 C   0  0  0  0  0  0  0  0  0  0  0  0
  -19.8030  -25.3029  -37.2199 C   0  0  0  0  0  0  0  0  0  0  0  0
  -12.3699  -25.3341  -35.5847 C   0  0  0  0  0  0  0  0  0  0  0  0
  -20.5447  -24.0210  -37.6068 C   0  0  0  0  0  0  0  0  0  0  0  0
  -10.8908  -25.7275  -35.5211 C   0  0  0  0  0  0  0  0  0  0  0  0
  -10.6071  -27.1848  -35.1447 C   0  0  0  0  0  0  0  0  0  0  0  0
   -9.1410  -27.4494  -34.8003 C   0  0  0  0  0  0  0  0  0  0  0  0
   -4.6377  -31.5153  -35.4855 C   0  0  0  0  0  0  0  0  0  0  0  0
   -8.8306  -28.9416  -34.8181 C   0  0  0  0  0  0  0  0  0  0  0  0
   -5.4683  -30.3763  -35.1692 N   0  0  0  0  0  0  0  0  0  0  0  0
   -7.4142  -29.1805  -34.8591 N   0  0  0  0  0  0  0  0  0  0  0  0
   -7.5212  -31.4054  -35.5115 O   0  0  0  0  0  0  0  0  0  0  0  0
  -17.4454  -25.2952  -34.9362 H   0  0  0  0  0  0  0  0  0  0  0  0
  -15.1791  -26.1165  -34.8931 H   0  0  0  0  0  0  0  0  0  0  0  0
  -24.6889  -23.4202  -37.0332 H   0  0  0  0  0  0  0  0  0  0  0  0
  -24.0240  -22.7680  -35.5265 H   0  0  0  0  0  0  0  0  0  0  0  0
  -24.5694  -21.6720  -36.8132 H   0  0  0  0  0  0  0  0  0  0  0  0
   -3.4635  -31.3769  -33.6996 H   0  0  0  0  0  0  0  0  0  0  0  0
   -4.8427  -32.5075  -33.5987 H   0  0  0  0  0  0  0  0  0  0  0  0
   -3.3925  -32.9468  -34.5199 H   0  0  0  0  0  0  0  0  0  0  0  0
  -16.6349  -24.0373  -37.6411 H   0  0  0  0  0  0  0  0  0  0  0  0
  -17.9642  -23.5627  -36.5920 H   0  0  0  0  0  0  0  0  0  0  0  0
  -14.4769  -24.4106  -37.2161 H   0  0  0  0  0  0  0  0  0  0  0  0
  -15.0167  -25.9754  -37.7938 H   0  0  0  0  0  0  0  0  0  0  0  0
  -22.0822  -21.8299  -36.8355 H   0  0  0  0  0  0  0  0  0  0  0  0
  -22.7710  -22.5084  -38.3063 H   0  0  0  0  0  0  0  0  0  0  0  0
  -17.9916  -26.3380  -37.7690 H   0  0  0  0  0  0  0  0  0  0  0  0
  -18.3884  -24.9866  -38.8254 H   0  0  0  0  0  0  0  0  0  0  0  0
  -12.6495  -26.1322  -37.5749 H   0  0  0  0  0  0  0  0  0  0  0  0
  -13.3436  -27.1074  -36.2981 H   0  0  0  0  0  0  0  0  0  0  0  0
  -21.8764  -24.1792  -35.9096 H   0  0  0  0  0  0  0  0  0  0  0  0
  -22.5469  -24.7940  -37.4168 H   0  0  0  0  0  0  0  0  0  0  0  0
  -20.3502  -26.1737  -37.6004 H   0  0  0  0  0  0  0  0  0  0  0  0
  -19.7793  -25.3853  -36.1273 H   0  0  0  0  0  0  0  0  0  0  0  0
  -12.8292  -25.4923  -34.6015 H   0  0  0  0  0  0  0  0  0  0  0  0
  -12.4324  -24.2539  -35.7640 H   0  0  0  0  0  0  0  0  0  0  0  0
  -20.6237  -23.9574  -38.6987 H   0  0  0  0  0  0  0  0  0  0  0  0
  -19.9626  -23.1555  -37.2709 H   0  0  0  0  0  0  0  0  0  0  0  0
  -10.4159  -25.5188  -36.4867 H   0  0  0  0  0  0  0  0  0  0  0  0
  -10.3926  -25.0720  -34.7955 H   0  0  0  0  0  0  0  0  0  0  0  0
  -10.8934  -27.8155  -35.9960 H   0  0  0  0  0  0  0  0  0  0  0  0
  -11.2463  -27.4898  -34.3084 H   0  0  0  0  0  0  0  0  0  0  0  0
   -8.4912  -26.9302  -35.5157 H   0  0  0  0  0  0  0  0  0  0  0  0
   -8.9044  -27.0461  -33.8089 H   0  0  0  0  0  0  0  0  0  0  0  0
   -5.2598  -32.2464  -36.0105 H   0  0  0  0  0  0  0  0  0  0  0  0
   -3.8480  -31.1745  -36.1614 H   0  0  0  0  0  0  0  0  0  0  0  0
   -9.2695  -29.4241  -35.6970 H   0  0  0  0  0  0  0  0  0  0  0  0
   -9.2205  -29.4345  -33.9219 H   0  0  0  0  0  0  0  0  0  0  0  0
   -5.0154  -29.5067  -34.9056 H   0  0  0  0  0  0  0  0  0  0  0  0
   -6.7838  -28.4313  -34.5786 H   0  0  0  0  0  0  0  0  0  0  0  0
  1  2  2  0  0  0  0
  1  6  1  0  0  0  0
  2  7  1  0  0  0  0
  3 20  1  0  0  0  0
  3 21  1  0  0  0  0
  3 22  2  0  0  0  0
  4  8  1  0  0  0  0
  5 18  1  0  0  0  0
  6  9  1  0  0  0  0
  7 10  1  0  0  0  0
  8 11  1  0  0  0  0
  9 12  1  0  0  0  0
 10 13  1  0  0  0  0
 11 14  1  0  0  0  0
 12 14  1  0  0  0  0
 13 15  1  0  0  0  0
 15 16  1  0  0  0  0
 16 17  1  0  0  0  0
 17 19  1  0  0  0  0
 18 20  1  0  0  0  0
 19 21  1  0  0  0  0
  1 23  1  0  0  0  0
  2 24  1  0  0  0  0
  4 25  1  0  0  0  0
  4 26  1  0  0  0  0
  4 27  1  0  0  0  0
  5 28  1  0  0  0  0
  5 29  1  0  0  0  0
  5 30  1  0  0  0  0
  6 31  1  0  0  0  0
  6 32  1  0  0  0  0
  7 33  1  0  0  0  0
  7 34  1  0  0  0  0
  8 35  1  0  0  0  0
  8 36  1  0  0  0  0
  9 37  1  0  0  0  0
  9 38  1  0  0  0  0
 10 39  1  0  0  0  0
 10 40  1  0  0  0  0
 11 41  1  0  0  0  0
 11 42  1  0  0  0  0
 12 43  1  0  0  0  0
 12 44  1  0  0  0  0
 13 45  1  0  0  0  0
 13 46  1  0  0  0  0
 14 47  1  0  0  0  0
 14 48  1  0  0  0  0
 15 49  1  0  0  0  0
 15 50  1  0  0  0  0
 16 51  1  0  0  0  0
 16 52  1  0  0  0  0
 17 53  1  0  0  0  0
 17 54  1  0  0  0  0
 18 55  1  0  0  0  0
 18 56  1  0  0  0  0
 19 57  1  0  0  0  0
 19 58  1  0  0  0  0
 20 59  1  0  0  0  0
 21 60  1  0  0  0  0
M  END
> <Name>
IA_105.cdx

> <SourceTag>
IA_105

> <Gold.Version>
5.2

> <Gold.Id.Protein>
6HGV|6HGV_protein|mol2

> <Gold.Goldscore.Fitness>
68.3951

> <Gold.Goldscore.Internal.Vdw>
-8.3531

> <Gold.Goldscore.Internal.Torsion>
-6.6644

> <Gold.Goldscore.External.Vdw>
53.8139

> <Gold.Goldscore.Internal.HBond>
0.0000

> <Gold.Goldscore.External.HBond>
0.0000

> <Gold.Goldscore.Internal.Correction>
-9.4184

> <Gold.Goldscore.Internal.Vdw.Weighted>
-8.3531

> <Gold.Goldscore.Internal.Torsion.Weighted>
-6.6644

> <Gold.Goldscore.External.Vdw.Weighted>
73.9942

> <Gold.Goldscore.Internal.HBond.Weighted>
0.0000

> <Gold.Goldscore.External.HBond.Weighted>
0.0000

> <Gold.Goldscore.Internal.Correction.Weighted>
-9.4184

> <Gold.Protein.RotatedTorsions>
[ 3781 1176 1175 1172 ] final   67.99 input   60.00 | X-H torsion
[ 3847 1247 1246 1244 ] final  -35.49 input   60.00 | X-H torsion
[ 4507 1931 1930 1928 ] final   93.08 input   60.00 | X-H torsion
[ 3677 1070 1069 1066 ] final  -97.02 input   60.00 | X-H torsion
[ 3525  925  924  922 ] final   46.99 input   59.99 | X-H torsion
[ 4531 1957 1955 1953 ] final  -73.42 input   60.00 | X-H torsion

> <Gold.Protein.ActiveResidues>
 PHE267  PRO268  MET310  ASP335  TRP336  MET339  TYR343  THR360  PRO361  ILE363
 PRO371  SER374  ILE375  ASN378  PHE381  TYR383  GLN384  PHE387  LEU408  LEU417
 MET419  LEU428  TYR466  MET469  ASN472  ASP496  VAL498  LEU499  MET503  HIS524
 TRP525

> <Gold.Protein.RotatedAtoms>
   -2.9997  -29.7710  -30.8624 H   0  0  0  0  0  0  0  0  0  0  0  0  # atno 3525 bound_to 925
  -11.7786  -23.7726  -31.4060 H   0  0  0  0  0  0  0  0  0  0  0  0  # atno 3677 bound_to 1070
  -10.5218  -37.4229  -32.6782 H   0  0  0  0  0  0  0  0  0  0  0  0  # atno 3781 bound_to 1176
  -16.0234  -28.2442  -37.1131 H   0  0  0  0  0  0  0  0  0  0  0  0  # atno 3847 bound_to 1247
  -12.4521  -24.2184  -39.0265 H   0  0  0  0  0  0  0  0  0  0  0  0  # atno 4507 bound_to 1931
   -1.7765  -32.2883  -36.8908 H   0  0  0  0  0  0  0  0  0  0  0  0  # atno 4531 bound_to 1957
  -10.3405  -36.7484  -34.1480 LP  0  0  0  0  0  0  0  0  0  0  0  0  # atno 5205 bound_to 1176
   -9.2450  -36.4579  -32.9723 LP  0  0  0  0  0  0  0  0  0  0  0  0  # atno 5206 bound_to 1176
  -15.0077  -27.2402  -37.8931 LP  0  0  0  0  0  0  0  0  0  0  0  0  # atno 5215 bound_to 1247
  -14.5274  -28.7515  -37.5035 LP  0  0  0  0  0  0  0  0  0  0  0  0  # atno 5216 bound_to 1247
  -13.5134  -25.3825  -39.4345 LP  0  0  0  0  0  0  0  0  0  0  0  0  # atno 5217 bound_to 1931
  -13.2336  -24.1358  -40.4515 LP  0  0  0  0  0  0  0  0  0  0  0  0  # atno 5218 bound_to 1931
  -11.3027  -22.3304  -30.8215 LP  0  0  0  0  0  0  0  0  0  0  0  0  # atno 5224 bound_to 1070
  -12.7740  -22.9252  -30.4369 LP  0  0  0  0  0  0  0  0  0  0  0  0  # atno 5225 bound_to 1070

$$$$
IA_105.cdx|SeH_inactivess_minimized|sdf|7|dock6
  -GOLD-   4172118383D 1   1.00000     0.00000

 60 59  0  0  0  0  0  0  0  0  1 V2000
  -16.2513  -23.9313  -37.9793 C   0  0  0  0  0  0  0  0  0  0  0  0
  -15.0875  -24.3754  -37.4823 C   0  0  0  0  0  0  0  0  0  0  0  0
   -7.0532  -29.7882  -35.3289 C   0  0  0  0  0  0  0  0  0  0  0  0
  -24.6575  -22.4386  -35.8402 C   0  0  0  0  0  0  0  0  0  0  0  0
   -4.6205  -32.6001  -35.2538 C   0  0  0  0  0  0  0  0  0  0  0  0
  -17.5897  -24.4993  -37.6062 C   0  0  0  0  0  0  0  0  0  0  0  0
  -14.9802  -25.4967  -36.4901 C   0  0  0  0  0  0  0  0  0  0  0  0
  -23.4272  -22.1077  -36.6709 C   0  0  0  0  0  0  0  0  0  0  0  0
  -18.7536  -23.5804  -37.9925 C   0  0  0  0  0  0  0  0  0  0  0  0
  -13.6464  -26.2471  -36.5755 C   0  0  0  0  0  0  0  0  0  0  0  0
  -22.4310  -23.2645  -36.7744 C   0  0  0  0  0  0  0  0  0  0  0  0
  -20.0818  -23.9893  -37.3483 C   0  0  0  0  0  0  0  0  0  0  0  0
  -12.4521  -25.5501  -35.9121 C   0  0  0  0  0  0  0  0  0  0  0  0
  -21.1313  -22.8837  -37.4869 C   0  0  0  0  0  0  0  0  0  0  0  0
  -11.1772  -26.3901  -35.7863 C   0  0  0  0  0  0  0  0  0  0  0  0
  -11.3076  -27.6752  -34.9634 C   0  0  0  0  0  0  0  0  0  0  0  0
   -9.9640  -28.3325  -34.6457 C   0  0  0  0  0  0  0  0  0  0  0  0
   -5.1063  -31.2614  -34.8131 C   0  0  0  0  0  0  0  0  0  0  0  0
   -9.2205  -28.7128  -35.9208 C   0  0  0  0  0  0  0  0  0  0  0  0
   -6.4813  -31.0513  -35.2033 N   0  0  0  0  0  0  0  0  0  0  0  0
   -8.3920  -29.8691  -35.7177 N   0  0  0  0  0  0  0  0  0  0  0  0
   -6.4579  -28.7310  -35.1248 O   0  0  0  0  0  0  0  0  0  0  0  0
  -16.2497  -23.1107  -38.6924 H   0  0  0  0  0  0  0  0  0  0  0  0
  -14.1573  -23.9135  -37.8037 H   0  0  0  0  0  0  0  0  0  0  0  0
  -25.3204  -21.5688  -35.7886 H   0  0  0  0  0  0  0  0  0  0  0  0
  -25.2197  -23.2668  -36.2829 H   0  0  0  0  0  0  0  0  0  0  0  0
  -24.3885  -22.7104  -34.8153 H   0  0  0  0  0  0  0  0  0  0  0  0
   -4.8008  -32.7482  -36.3241 H   0  0  0  0  0  0  0  0  0  0  0  0
   -3.5504  -32.7140  -35.0489 H   0  0  0  0  0  0  0  0  0  0  0  0
   -5.1553  -33.3872  -34.7090 H   0  0  0  0  0  0  0  0  0  0  0  0
  -17.6390  -24.7195  -36.5328 H   0  0  0  0  0  0  0  0  0  0  0  0
  -17.7094  -25.4565  -38.1279 H   0  0  0  0  0  0  0  0  0  0  0  0
  -15.8131  -26.2008  -36.5987 H   0  0  0  0  0  0  0  0  0  0  0  0
  -15.0723  -25.0675  -35.4848 H   0  0  0  0  0  0  0  0  0  0  0  0
  -22.9313  -21.2239  -36.2534 H   0  0  0  0  0  0  0  0  0  0  0  0
  -23.7531  -21.8394  -37.6830 H   0  0  0  0  0  0  0  0  0  0  0  0
  -18.8611  -23.6011  -39.0841 H   0  0  0  0  0  0  0  0  0  0  0  0
  -18.5150  -22.5449  -37.7189 H   0  0  0  0  0  0  0  0  0  0  0  0
  -13.4186  -26.4373  -37.6311 H   0  0  0  0  0  0  0  0  0  0  0  0
  -13.7635  -27.2359  -36.1124 H   0  0  0  0  0  0  0  0  0  0  0  0
  -22.2053  -23.6458  -35.7709 H   0  0  0  0  0  0  0  0  0  0  0  0
  -22.9132  -24.0836  -37.3222 H   0  0  0  0  0  0  0  0  0  0  0  0
  -20.4509  -24.9081  -37.8197 H   0  0  0  0  0  0  0  0  0  0  0  0
  -19.9314  -24.2070  -36.2849 H   0  0  0  0  0  0  0  0  0  0  0  0
  -12.7606  -25.2088  -34.9166 H   0  0  0  0  0  0  0  0  0  0  0  0
  -12.2103  -24.6372  -36.4700 H   0  0  0  0  0  0  0  0  0  0  0  0
  -21.3335  -22.6999  -38.5489 H   0  0  0  0  0  0  0  0  0  0  0  0
  -20.7303  -21.9549  -37.0657 H   0  0  0  0  0  0  0  0  0  0  0  0
  -10.8132  -26.6527  -36.7864 H   0  0  0  0  0  0  0  0  0  0  0  0
  -10.3958  -25.7622  -35.3396 H   0  0  0  0  0  0  0  0  0  0  0  0
  -11.9242  -28.3809  -35.5343 H   0  0  0  0  0  0  0  0  0  0  0  0
  -11.8522  -27.4744  -34.0338 H   0  0  0  0  0  0  0  0  0  0  0  0
   -9.3466  -27.6484  -34.0502 H   0  0  0  0  0  0  0  0  0  0  0  0
  -10.1149  -29.2318  -34.0373 H   0  0  0  0  0  0  0  0  0  0  0  0
   -4.5056  -30.4672  -35.2665 H   0  0  0  0  0  0  0  0  0  0  0  0
   -5.0506  -31.1674  -33.7246 H   0  0  0  0  0  0  0  0  0  0  0  0
   -8.5697  -27.8984  -36.2543 H   0  0  0  0  0  0  0  0  0  0  0  0
   -9.9209  -28.9489  -36.7282 H   0  0  0  0  0  0  0  0  0  0  0  0
   -7.0585  -31.8642  -35.3952 H   0  0  0  0  0  0  0  0  0  0  0  0
   -8.7830  -30.7902  -35.9078 H   0  0  0  0  0  0  0  0  0  0  0  0
  1  2  2  0  0  0  0
  1  6  1  0  0  0  0
  2  7  1  0  0  0  0
  3 20  1  0  0  0  0
  3 21  1  0  0  0  0
  3 22  2  0  0  0  0
  4  8  1  0  0  0  0
  5 18  1  0  0  0  0
  6  9  1  0  0  0  0
  7 10  1  0  0  0  0
  8 11  1  0  0  0  0
  9 12  1  0  0  0  0
 10 13  1  0  0  0  0
 11 14  1  0  0  0  0
 12 14  1  0  0  0  0
 13 15  1  0  0  0  0
 15 16  1  0  0  0  0
 16 17  1  0  0  0  0
 17 19  1  0  0  0  0
 18 20  1  0  0  0  0
 19 21  1  0  0  0  0
  1 23  1  0  0  0  0
  2 24  1  0  0  0  0
  4 25  1  0  0  0  0
  4 26  1  0  0  0  0
  4 27  1  0  0  0  0
  5 28  1  0  0  0  0
  5 29  1  0  0  0  0
  5 30  1  0  0  0  0
  6 31  1  0  0  0  0
  6 32  1  0  0  0  0
  7 33  1  0  0  0  0
  7 34  1  0  0  0  0
  8 35  1  0  0  0  0
  8 36  1  0  0  0  0
  9 37  1  0  0  0  0
  9 38  1  0  0  0  0
 10 39  1  0  0  0  0
 10 40  1  0  0  0  0
 11 41  1  0  0  0  0
 11 42  1  0  0  0  0
 12 43  1  0  0  0  0
 12 44  1  0  0  0  0
 13 45  1  0  0  0  0
 13 46  1  0  0  0  0
 14 47  1  0  0  0  0
 14 48  1  0  0  0  0
 15 49  1  0  0  0  0
 15 50  1  0  0  0  0
 16 51  1  0  0  0  0
 16 52  1  0  0  0  0
 17 53  1  0  0  0  0
 17 54  1  0  0  0  0
 18 55  1  0  0  0  0
 18 56  1  0  0  0  0
 19 57  1  0  0  0  0
 19 58  1  0  0  0  0
 20 59  1  0  0  0  0
 21 60  1  0  0  0  0
M  END
> <Name>
IA_105.cdx

> <SourceTag>
IA_105

> <Gold.Version>
5.2

> <Gold.Id.Protein>
6HGV|6HGV_protein|mol2

> <Gold.Goldscore.Fitness>
68.3187

> <Gold.Goldscore.Internal.Vdw>
-7.7799

> <Gold.Goldscore.Internal.Torsion>
-7.1007

> <Gold.Goldscore.External.Vdw>
53.6587

> <Gold.Goldscore.Internal.HBond>
0.0000

> <Gold.Goldscore.External.HBond>
0.0000

> <Gold.Goldscore.Internal.Correction>
-9.4184

> <Gold.Goldscore.Internal.Vdw.Weighted>
-7.7799

> <Gold.Goldscore.Internal.Torsion.Weighted>
-7.1007

> <Gold.Goldscore.External.Vdw.Weighted>
73.7808

> <Gold.Goldscore.Internal.HBond.Weighted>
0.0000

> <Gold.Goldscore.External.HBond.Weighted>
0.0000

> <Gold.Goldscore.Internal.Correction.Weighted>
-9.4184

> <Gold.Protein.RotatedTorsions>
[ 3781 1176 1175 1172 ] final   45.15 input   60.00 | X-H torsion
[ 3847 1247 1246 1244 ] final   -9.99 input   60.00 | X-H torsion
[ 4507 1931 1930 1928 ] final  -57.64 input   60.00 | X-H torsion
[ 3677 1070 1069 1066 ] final -108.30 input   60.00 | X-H torsion
[ 3525  925  924  922 ] final   26.47 input   59.99 | X-H torsion
[ 4531 1957 1955 1953 ] final  -66.82 input   60.00 | X-H torsion

> <Gold.Protein.ActiveResidues>
 PHE267  PRO268  MET310  ASP335  TRP336  MET339  TYR343  THR360  PRO361  ILE363
 PRO371  SER374  ILE375  ASN378  PHE381  TYR383  GLN384  PHE387  LEU408  LEU417
 MET419  LEU428  TYR466  MET469  ASN472  ASP496  VAL498  LEU499  MET503  HIS524
 TRP525

> <Gold.Protein.RotatedAtoms>
   -3.2938  -29.6522  -30.7592 H   0  0  0  0  0  0  0  0  0  0  0  0  # atno 3525 bound_to 925
  -11.6169  -23.6912  -31.4391 H   0  0  0  0  0  0  0  0  0  0  0  0  # atno 3677 bound_to 1070
  -10.7275  -37.4449  -32.9858 H   0  0  0  0  0  0  0  0  0  0  0  0  # atno 3781 bound_to 1176
  -15.8236  -28.6011  -37.0550 H   0  0  0  0  0  0  0  0  0  0  0  0  # atno 3847 bound_to 1247
  -13.6758  -25.2428  -39.8839 H   0  0  0  0  0  0  0  0  0  0  0  0  # atno 4507 bound_to 1931
   -1.8743  -32.2471  -36.8715 H   0  0  0  0  0  0  0  0  0  0  0  0  # atno 4531 bound_to 1957
  -10.0296  -36.5418  -34.1457 LP  0  0  0  0  0  0  0  0  0  0  0  0  # atno 5205 bound_to 1176
   -9.3488  -36.6423  -32.6648 LP  0  0  0  0  0  0  0  0  0  0  0  0  # atno 5206 bound_to 1176
  -15.3983  -27.1959  -37.7567 LP  0  0  0  0  0  0  0  0  0  0  0  0  # atno 5215 bound_to 1247
  -14.3380  -28.4364  -37.6983 LP  0  0  0  0  0  0  0  0  0  0  0  0  # atno 5216 bound_to 1247
  -12.8962  -23.8534  -40.2151 LP  0  0  0  0  0  0  0  0  0  0  0  0  # atno 5217 bound_to 1931
  -12.6185  -24.6332  -38.8075 LP  0  0  0  0  0  0  0  0  0  0  0  0  # atno 5218 bound_to 1931
  -11.4277  -22.2473  -30.7128 LP  0  0  0  0  0  0  0  0  0  0  0  0  # atno 5224 bound_to 1070
  -12.8119  -23.0902  -30.5123 LP  0  0  0  0  0  0  0  0  0  0  0  0  # atno 5225 bound_to 1070

$$$$
IA_105.cdx|SeH_inactivess_minimized|sdf|7|dock7
  -GOLD-   4172118383D 1   1.00000     0.00000

 60 59  0  0  0  0  0  0  0  0  1 V2000
  -16.5980  -25.4423  -38.2290 C   0  0  0  0  0  0  0  0  0  0  0  0
  -15.3087  -25.6410  -37.9178 C   0  0  0  0  0  0  0  0  0  0  0  0
   -6.7376  -30.4300  -35.4352 C   0  0  0  0  0  0  0  0  0  0  0  0
  -24.8506  -22.9078  -36.0941 C   0  0  0  0  0  0  0  0  0  0  0  0
   -3.6943  -31.6661  -33.8752 C   0  0  0  0  0  0  0  0  0  0  0  0
  -17.6592  -25.1115  -37.2202 C   0  0  0  0  0  0  0  0  0  0  0  0
  -14.7675  -25.5569  -36.5202 C   0  0  0  0  0  0  0  0  0  0  0  0
  -23.8137  -23.3448  -37.1174 C   0  0  0  0  0  0  0  0  0  0  0  0
  -19.0383  -24.9039  -37.8552 C   0  0  0  0  0  0  0  0  0  0  0  0
  -13.2586  -25.8153  -36.4451 C   0  0  0  0  0  0  0  0  0  0  0  0
  -22.5457  -23.9287  -36.4910 C   0  0  0  0  0  0  0  0  0  0  0  0
  -20.1267  -24.5659  -36.8316 C   0  0  0  0  0  0  0  0  0  0  0  0
  -12.6355  -25.6924  -35.0491 C   0  0  0  0  0  0  0  0  0  0  0  0
  -21.4618  -24.2657  -37.5174 C   0  0  0  0  0  0  0  0  0  0  0  0
  -11.1244  -25.9312  -34.9714 C   0  0  0  0  0  0  0  0  0  0  0  0
  -10.6532  -27.3350  -35.3630 C   0  0  0  0  0  0  0  0  0  0  0  0
   -9.1903  -27.6058  -35.0096 C   0  0  0  0  0  0  0  0  0  0  0  0
   -4.5423  -31.5674  -35.0974 C   0  0  0  0  0  0  0  0  0  0  0  0
   -8.7116  -28.9215  -35.6121 C   0  0  0  0  0  0  0  0  0  0  0  0
   -5.4018  -30.4075  -35.0432 N   0  0  0  0  0  0  0  0  0  0  0  0
   -7.3369  -29.1781  -35.2818 N   0  0  0  0  0  0  0  0  0  0  0  0
   -7.3209  -31.4253  -35.8627 O   0  0  0  0  0  0  0  0  0  0  0  0
  -16.9152  -25.5161  -39.2663 H   0  0  0  0  0  0  0  0  0  0  0  0
  -14.5987  -25.8798  -38.7057 H   0  0  0  0  0  0  0  0  0  0  0  0
  -25.2568  -23.7819  -35.5749 H   0  0  0  0  0  0  0  0  0  0  0  0
  -24.4079  -22.2443  -35.3447 H   0  0  0  0  0  0  0  0  0  0  0  0
  -25.6873  -22.3866  -36.5682 H   0  0  0  0  0  0  0  0  0  0  0  0
   -3.0038  -30.8183  -33.8092 H   0  0  0  0  0  0  0  0  0  0  0  0
   -4.3135  -31.6986  -32.9721 H   0  0  0  0  0  0  0  0  0  0  0  0
   -3.0979  -32.5856  -33.9102 H   0  0  0  0  0  0  0  0  0  0  0  0
  -17.3869  -24.2218  -36.6392 H   0  0  0  0  0  0  0  0  0  0  0  0
  -17.7216  -25.9434  -36.5083 H   0  0  0  0  0  0  0  0  0  0  0  0
  -15.2983  -26.2423  -35.8496 H   0  0  0  0  0  0  0  0  0  0  0  0
  -14.9650  -24.5461  -36.1424 H   0  0  0  0  0  0  0  0  0  0  0  0
  -23.5555  -22.4961  -37.7612 H   0  0  0  0  0  0  0  0  0  0  0  0
  -24.2636  -24.1075  -37.7643 H   0  0  0  0  0  0  0  0  0  0  0  0
  -19.3154  -25.8236  -38.3853 H   0  0  0  0  0  0  0  0  0  0  0  0
  -18.9832  -24.1093  -38.6100 H   0  0  0  0  0  0  0  0  0  0  0  0
  -12.7511  -25.1292  -37.1337 H   0  0  0  0  0  0  0  0  0  0  0  0
  -13.0507  -26.8252  -36.8228 H   0  0  0  0  0  0  0  0  0  0  0  0
  -22.1467  -23.2275  -35.7477 H   0  0  0  0  0  0  0  0  0  0  0  0
  -22.8210  -24.8413  -35.9479 H   0  0  0  0  0  0  0  0  0  0  0  0
  -20.2506  -25.4053  -36.1368 H   0  0  0  0  0  0  0  0  0  0  0  0
  -19.8263  -23.6945  -36.2388 H   0  0  0  0  0  0  0  0  0  0  0  0
  -13.1478  -26.3935  -34.3792 H   0  0  0  0  0  0  0  0  0  0  0  0
  -12.8487  -24.6957  -34.6442 H   0  0  0  0  0  0  0  0  0  0  0  0
  -21.7735  -25.1335  -38.1109 H   0  0  0  0  0  0  0  0  0  0  0  0
  -21.3275  -23.4277  -38.2106 H   0  0  0  0  0  0  0  0  0  0  0  0
  -10.6066  -25.2013  -35.6044 H   0  0  0  0  0  0  0  0  0  0  0  0
  -10.7966  -25.7220  -33.9452 H   0  0  0  0  0  0  0  0  0  0  0  0
  -10.7851  -27.4456  -36.4468 H   0  0  0  0  0  0  0  0  0  0  0  0
  -11.2944  -28.0918  -34.8971 H   0  0  0  0  0  0  0  0  0  0  0  0
   -8.5613  -26.7841  -35.3739 H   0  0  0  0  0  0  0  0  0  0  0  0
   -9.0624  -27.6426  -33.9215 H   0  0  0  0  0  0  0  0  0  0  0  0
   -5.1800  -32.4512  -35.1940 H   0  0  0  0  0  0  0  0  0  0  0  0
   -3.9218  -31.4809  -35.9942 H   0  0  0  0  0  0  0  0  0  0  0  0
   -8.7883  -28.9050  -36.7039 H   0  0  0  0  0  0  0  0  0  0  0  0
   -9.3018  -29.7633  -35.2365 H   0  0  0  0  0  0  0  0  0  0  0  0
   -5.0129  -29.5336  -34.7028 H   0  0  0  0  0  0  0  0  0  0  0  0
   -6.7831  -28.4260  -34.8756 H   0  0  0  0  0  0  0  0  0  0  0  0
  1  2  2  0  0  0  0
  1  6  1  0  0  0  0
  2  7  1  0  0  0  0
  3 20  1  0  0  0  0
  3 21  1  0  0  0  0
  3 22  2  0  0  0  0
  4  8  1  0  0  0  0
  5 18  1  0  0  0  0
  6  9  1  0  0  0  0
  7 10  1  0  0  0  0
  8 11  1  0  0  0  0
  9 12  1  0  0  0  0
 10 13  1  0  0  0  0
 11 14  1  0  0  0  0
 12 14  1  0  0  0  0
 13 15  1  0  0  0  0
 15 16  1  0  0  0  0
 16 17  1  0  0  0  0
 17 19  1  0  0  0  0
 18 20  1  0  0  0  0
 19 21  1  0  0  0  0
  1 23  1  0  0  0  0
  2 24  1  0  0  0  0
  4 25  1  0  0  0  0
  4 26  1  0  0  0  0
  4 27  1  0  0  0  0
  5 28  1  0  0  0  0
  5 29  1  0  0  0  0
  5 30  1  0  0  0  0
  6 31  1  0  0  0  0
  6 32  1  0  0  0  0
  7 33  1  0  0  0  0
  7 34  1  0  0  0  0
  8 35  1  0  0  0  0
  8 36  1  0  0  0  0
  9 37  1  0  0  0  0
  9 38  1  0  0  0  0
 10 39  1  0  0  0  0
 10 40  1  0  0  0  0
 11 41  1  0  0  0  0
 11 42  1  0  0  0  0
 12 43  1  0  0  0  0
 12 44  1  0  0  0  0
 13 45  1  0  0  0  0
 13 46  1  0  0  0  0
 14 47  1  0  0  0  0
 14 48  1  0  0  0  0
 15 49  1  0  0  0  0
 15 50  1  0  0  0  0
 16 51  1  0  0  0  0
 16 52  1  0  0  0  0
 17 53  1  0  0  0  0
 17 54  1  0  0  0  0
 18 55  1  0  0  0  0
 18 56  1  0  0  0  0
 19 57  1  0  0  0  0
 19 58  1  0  0  0  0
 20 59  1  0  0  0  0
 21 60  1  0  0  0  0
M  END
> <Name>
IA_105.cdx

> <SourceTag>
IA_105

> <Gold.Version>
5.2

> <Gold.Id.Protein>
6HGV|6HGV_protein|mol2

> <Gold.Goldscore.Fitness>
67.3148

> <Gold.Goldscore.Internal.Vdw>
-5.2182

> <Gold.Goldscore.Internal.Torsion>
-5.3643

> <Gold.Goldscore.External.Vdw>
49.9181

> <Gold.Goldscore.Internal.HBond>
0.0000

> <Gold.Goldscore.External.HBond>
0.0000

> <Gold.Goldscore.Internal.Correction>
-9.2599

> <Gold.Goldscore.Internal.Vdw.Weighted>
-5.2182

> <Gold.Goldscore.Internal.Torsion.Weighted>
-5.3643

> <Gold.Goldscore.External.Vdw.Weighted>
68.6374

> <Gold.Goldscore.Internal.HBond.Weighted>
0.0000

> <Gold.Goldscore.External.HBond.Weighted>
0.0000

> <Gold.Goldscore.Internal.Correction.Weighted>
-9.2599

> <Gold.Protein.RotatedTorsions>
[ 3781 1176 1175 1172 ] final  128.12 input   60.00 | X-H torsion
[ 3847 1247 1246 1244 ] final  -29.27 input   60.00 | X-H torsion
[ 4507 1931 1930 1928 ] final  121.18 input   60.00 | X-H torsion
[ 3677 1070 1069 1066 ] final -101.05 input   60.00 | X-H torsion
[ 3525  925  924  922 ] final   61.54 input   59.99 | X-H torsion
[ 4531 1957 1955 1953 ] final   83.01 input   60.00 | X-H torsion

> <Gold.Protein.ActiveResidues>
 PHE267  PRO268  MET310  ASP335  TRP336  MET339  TYR343  THR360  PRO361  ILE363
 PRO371  SER374  ILE375  ASN378  PHE381  TYR383  GLN384  PHE387  LEU408  LEU417
 MET419  LEU428  TYR466  MET469  ASN472  ASP496  VAL498  LEU499  MET503  HIS524
 TRP525

> <Gold.Protein.RotatedAtoms>
   -2.7823  -29.8655  -30.8647 H   0  0  0  0  0  0  0  0  0  0  0  0  # atno 3525 bound_to 925
  -11.7198  -23.7468  -31.4202 H   0  0  0  0  0  0  0  0  0  0  0  0  # atno 3677 bound_to 1070
   -9.7333  -37.0054  -32.3884 H   0  0  0  0  0  0  0  0  0  0  0  0  # atno 3781 bound_to 1176
  -15.9887  -28.3371  -37.0912 H   0  0  0  0  0  0  0  0  0  0  0  0  # atno 3847 bound_to 1247
  -12.4486  -23.9243  -39.3730 H   0  0  0  0  0  0  0  0  0  0  0  0  # atno 4507 bound_to 1931
   -2.8788  -33.7413  -36.7063 H   0  0  0  0  0  0  0  0  0  0  0  0  # atno 4531 bound_to 1957
  -10.8299  -37.2971  -33.5548 LP  0  0  0  0  0  0  0  0  0  0  0  0  # atno 5205 bound_to 1176
   -9.5496  -36.3296  -33.8573 LP  0  0  0  0  0  0  0  0  0  0  0  0  # atno 5206 bound_to 1176
  -15.1027  -27.2134  -37.8660 LP  0  0  0  0  0  0  0  0  0  0  0  0  # atno 5215 bound_to 1247
  -14.4674  -28.6847  -37.5526 LP  0  0  0  0  0  0  0  0  0  0  0  0  # atno 5216 bound_to 1247
  -13.2475  -25.3091  -39.0694 LP  0  0  0  0  0  0  0  0  0  0  0  0  # atno 5217 bound_to 1931
  -13.5030  -24.5054  -40.4678 LP  0  0  0  0  0  0  0  0  0  0  0  0  # atno 5218 bound_to 1931
  -11.3446  -22.2975  -30.7822 LP  0  0  0  0  0  0  0  0  0  0  0  0  # atno 5224 bound_to 1070
  -12.7913  -22.9840  -30.4619 LP  0  0  0  0  0  0  0  0  0  0  0  0  # atno 5225 bound_to 1070

$$$$
IA_105.cdx|SeH_inactivess_minimized|sdf|7|dock10
  -GOLD-   4172118393D 1   1.00000     0.00000

 60 59  0  0  0  0  0  0  0  0  1 V2000
  -11.2191  -25.2802  -34.1714 C   0  0  0  0  0  0  0  0  0  0  0  0
  -12.3288  -25.1657  -34.9159 C   0  0  0  0  0  0  0  0  0  0  0  0
  -21.8640  -25.5509  -36.1001 C   0  0  0  0  0  0  0  0  0  0  0  0
   -4.8585  -30.6344  -35.2708 C   0  0  0  0  0  0  0  0  0  0  0  0
  -25.3357  -25.1364  -36.5063 C   0  0  0  0  0  0  0  0  0  0  0  0
   -9.9467  -25.9091  -34.6601 C   0  0  0  0  0  0  0  0  0  0  0  0
  -12.4348  -25.6530  -36.3317 C   0  0  0  0  0  0  0  0  0  0  0  0
   -6.0365  -29.9467  -34.5981 C   0  0  0  0  0  0  0  0  0  0  0  0
   -9.9179  -27.4275  -34.4556 C   0  0  0  0  0  0  0  0  0  0  0  0
  -13.8512  -26.1035  -36.7062 C   0  0  0  0  0  0  0  0  0  0  0  0
   -7.3818  -30.2538  -35.2591 C   0  0  0  0  0  0  0  0  0  0  0  0
   -8.6222  -28.0765  -34.9521 C   0  0  0  0  0  0  0  0  0  0  0  0
  -14.8840  -24.9798  -36.8575 C   0  0  0  0  0  0  0  0  0  0  0  0
   -8.5642  -29.5599  -34.5791 C   0  0  0  0  0  0  0  0  0  0  0  0
  -16.3013  -25.4247  -37.2317 C   0  0  0  0  0  0  0  0  0  0  0  0
  -17.2805  -24.2991  -37.5778 C   0  0  0  0  0  0  0  0  0  0  0  0
  -18.6783  -24.8003  -37.9431 C   0  0  0  0  0  0  0  0  0  0  0  0
  -24.3033  -26.0543  -35.9460 C   0  0  0  0  0  0  0  0  0  0  0  0
  -19.4769  -25.1645  -36.6970 C   0  0  0  0  0  0  0  0  0  0  0  0
  -23.0633  -25.9547  -36.6807 N   0  0  0  0  0  0  0  0  0  0  0  0
  -20.8228  -25.5419  -37.0305 N   0  0  0  0  0  0  0  0  0  0  0  0
  -21.7332  -25.2408  -34.9167 O   0  0  0  0  0  0  0  0  0  0  0  0
  -11.2168  -24.8991  -33.1532 H   0  0  0  0  0  0  0  0  0  0  0  0
  -13.2134  -24.6993  -34.4897 H   0  0  0  0  0  0  0  0  0  0  0  0
   -5.0337  -31.7139  -35.3223 H   0  0  0  0  0  0  0  0  0  0  0  0
   -4.7184  -30.2651  -36.2916 H   0  0  0  0  0  0  0  0  0  0  0  0
   -3.9303  -30.4765  -34.7141 H   0  0  0  0  0  0  0  0  0  0  0  0
  -26.2603  -25.1843  -35.9208 H   0  0  0  0  0  0  0  0  0  0  0  0
  -24.9720  -24.1032  -36.5226 H   0  0  0  0  0  0  0  0  0  0  0  0
  -25.5727  -25.4283  -37.5364 H   0  0  0  0  0  0  0  0  0  0  0  0
   -9.0726  -25.4585  -34.1744 H   0  0  0  0  0  0  0  0  0  0  0  0
   -9.8534  -25.6969  -35.7320 H   0  0  0  0  0  0  0  0  0  0  0  0
  -11.7215  -26.4624  -36.5250 H   0  0  0  0  0  0  0  0  0  0  0  0
  -12.1471  -24.8278  -36.9948 H   0  0  0  0  0  0  0  0  0  0  0  0
   -5.8669  -28.8639  -34.5819 H   0  0  0  0  0  0  0  0  0  0  0  0
   -6.0806  -30.2759  -33.5530 H   0  0  0  0  0  0  0  0  0  0  0  0
  -10.7686  -27.8638  -34.9938 H   0  0  0  0  0  0  0  0  0  0  0  0
  -10.0634  -27.6615  -33.3934 H   0  0  0  0  0  0  0  0  0  0  0  0
  -14.2001  -26.8222  -35.9550 H   0  0  0  0  0  0  0  0  0  0  0  0
  -13.8102  -26.6578  -37.6533 H   0  0  0  0  0  0  0  0  0  0  0  0
   -7.3444  -29.9693  -36.3179 H   0  0  0  0  0  0  0  0  0  0  0  0
   -7.5381  -31.3393  -35.2294 H   0  0  0  0  0  0  0  0  0  0  0  0
   -8.5511  -27.9679  -36.0411 H   0  0  0  0  0  0  0  0  0  0  0  0
   -7.7561  -27.5651  -34.5169 H   0  0  0  0  0  0  0  0  0  0  0  0
  -14.5162  -24.2717  -37.6097 H   0  0  0  0  0  0  0  0  0  0  0  0
  -14.9369  -24.4088  -35.9226 H   0  0  0  0  0  0  0  0  0  0  0  0
   -9.4993  -30.0502  -34.8754 H   0  0  0  0  0  0  0  0  0  0  0  0
   -8.4783  -29.6520  -33.4906 H   0  0  0  0  0  0  0  0  0  0  0  0
  -16.2542  -26.1179  -38.0795 H   0  0  0  0  0  0  0  0  0  0  0  0
  -16.7108  -26.0042  -36.3946 H   0  0  0  0  0  0  0  0  0  0  0  0
  -16.8676  -23.7416  -38.4282 H   0  0  0  0  0  0  0  0  0  0  0  0
  -17.3462  -23.5873  -36.7472 H   0  0  0  0  0  0  0  0  0  0  0  0
  -19.2137  -24.0289  -38.5105 H   0  0  0  0  0  0  0  0  0  0  0  0
  -18.6090  -25.6796  -38.5939 H   0  0  0  0  0  0  0  0  0  0  0  0
  -24.6424  -27.0931  -36.0029 H   0  0  0  0  0  0  0  0  0  0  0  0
  -24.0922  -25.8092  -34.9011 H   0  0  0  0  0  0  0  0  0  0  0  0
  -19.5361  -24.3175  -36.0063 H   0  0  0  0  0  0  0  0  0  0  0  0
  -19.0204  -26.0089  -36.1708 H   0  0  0  0  0  0  0  0  0  0  0  0
  -23.0667  -26.1906  -37.6682 H   0  0  0  0  0  0  0  0  0  0  0  0
  -21.0208  -25.8602  -37.9775 H   0  0  0  0  0  0  0  0  0  0  0  0
  1  2  2  0  0  0  0
  1  6  1  0  0  0  0
  2  7  1  0  0  0  0
  3 20  1  0  0  0  0
  3 21  1  0  0  0  0
  3 22  2  0  0  0  0
  4  8  1  0  0  0  0
  5 18  1  0  0  0  0
  6  9  1  0  0  0  0
  7 10  1  0  0  0  0
  8 11  1  0  0  0  0
  9 12  1  0  0  0  0
 10 13  1  0  0  0  0
 11 14  1  0  0  0  0
 12 14  1  0  0  0  0
 13 15  1  0  0  0  0
 15 16  1  0  0  0  0
 16 17  1  0  0  0  0
 17 19  1  0  0  0  0
 18 20  1  0  0  0  0
 19 21  1  0  0  0  0
  1 23  1  0  0  0  0
  2 24  1  0  0  0  0
  4 25  1  0  0  0  0
  4 26  1  0  0  0  0
  4 27  1  0  0  0  0
  5 28  1  0  0  0  0
  5 29  1  0  0  0  0
  5 30  1  0  0  0  0
  6 31  1  0  0  0  0
  6 32  1  0  0  0  0
  7 33  1  0  0  0  0
  7 34  1  0  0  0  0
  8 35  1  0  0  0  0
  8 36  1  0  0  0  0
  9 37  1  0  0  0  0
  9 38  1  0  0  0  0
 10 39  1  0  0  0  0
 10 40  1  0  0  0  0
 11 41  1  0  0  0  0
 11 42  1  0  0  0  0
 12 43  1  0  0  0  0
 12 44  1  0  0  0  0
 13 45  1  0  0  0  0
 13 46  1  0  0  0  0
 14 47  1  0  0  0  0
 14 48  1  0  0  0  0
 15 49  1  0  0  0  0
 15 50  1  0  0  0  0
 16 51  1  0  0  0  0
 16 52  1  0  0  0  0
 17 53  1  0  0  0  0
 17 54  1  0  0  0  0
 18 55  1  0  0  0  0
 18 56  1  0  0  0  0
 19 57  1  0  0  0  0
 19 58  1  0  0  0  0
 20 59  1  0  0  0  0
 21 60  1  0  0  0  0
M  END
> <Name>
IA_105.cdx

> <SourceTag>
IA_105

> <Gold.Version>
5.2

> <Gold.Id.Protein>
6HGV|6HGV_protein|mol2

> <Gold.Goldscore.Fitness>
64.3115

> <Gold.Goldscore.Internal.Vdw>
-8.6517

> <Gold.Goldscore.Internal.Torsion>
-4.6805

> <Gold.Goldscore.External.Vdw>
49.7336

> <Gold.Goldscore.Internal.HBond>
0.0000

> <Gold.Goldscore.External.HBond>
0.0000

> <Gold.Goldscore.Internal.Correction>
-9.2599

> <Gold.Goldscore.Internal.Vdw.Weighted>
-8.6517

> <Gold.Goldscore.Internal.Torsion.Weighted>
-4.6805

> <Gold.Goldscore.External.Vdw.Weighted>
68.3837

> <Gold.Goldscore.Internal.HBond.Weighted>
0.0000

> <Gold.Goldscore.External.HBond.Weighted>
0.0000

> <Gold.Goldscore.Internal.Correction.Weighted>
-9.2599

> <Gold.Protein.RotatedTorsions>
[ 3781 1176 1175 1172 ] final  139.59 input   60.00 | X-H torsion
[ 3847 1247 1246 1244 ] final  -21.63 input   60.00 | X-H torsion
[ 4507 1931 1930 1928 ] final  -56.32 input   60.00 | X-H torsion
[ 3677 1070 1069 1066 ] final  -53.76 input   60.00 | X-H torsion
[ 3525  925  924  922 ] final   10.27 input   59.99 | X-H torsion
[ 4531 1957 1955 1953 ] final  -29.45 input   60.00 | X-H torsion

> <Gold.Protein.ActiveResidues>
 PHE267  PRO268  MET310  ASP335  TRP336  MET339  TYR343  THR360  PRO361  ILE363
 PRO371  SER374  ILE375  ASN378  PHE381  TYR383  GLN384  PHE387  LEU408  LEU417
 MET419  LEU428  TYR466  MET469  ASN472  ASP496  VAL498  LEU499  MET503  HIS524
 TRP525

> <Gold.Protein.RotatedAtoms>
   -3.4935  -29.5794  -30.6030 H   0  0  0  0  0  0  0  0  0  0  0  0  # atno 3525 bound_to 925
  -12.4035  -23.7996  -31.1141 H   0  0  0  0  0  0  0  0  0  0  0  0  # atno 3677 bound_to 1070
   -9.5934  -36.8926  -32.4404 H   0  0  0  0  0  0  0  0  0  0  0  0  # atno 3781 bound_to 1176
  -15.9331  -28.4470  -37.0709 H   0  0  0  0  0  0  0  0  0  0  0  0  # atno 3847 bound_to 1247
  -13.6719  -25.2530  -39.8652 H   0  0  0  0  0  0  0  0  0  0  0  0  # atno 4507 bound_to 1931
   -2.4637  -32.2420  -36.7593 H   0  0  0  0  0  0  0  0  0  0  0  0  # atno 4531 bound_to 1957
  -10.8351  -37.3662  -33.3796 LP  0  0  0  0  0  0  0  0  0  0  0  0  # atno 5205 bound_to 1176
   -9.6853  -36.3742  -33.9802 LP  0  0  0  0  0  0  0  0  0  0  0  0  # atno 5206 bound_to 1176
  -15.2206  -27.1945  -37.8270 LP  0  0  0  0  0  0  0  0  0  0  0  0  # atno 5215 bound_to 1247
  -14.4054  -28.5930  -37.6120 LP  0  0  0  0  0  0  0  0  0  0  0  0  # atno 5216 bound_to 1247
  -12.9104  -23.8617  -40.2293 LP  0  0  0  0  0  0  0  0  0  0  0  0  # atno 5217 bound_to 1931
  -12.6082  -24.6147  -38.8121 LP  0  0  0  0  0  0  0  0  0  0  0  0  # atno 5218 bound_to 1931
  -11.0851  -22.8523  -31.2258 LP  0  0  0  0  0  0  0  0  0  0  0  0  # atno 5224 bound_to 1070
  -12.3623  -22.3761  -30.3266 LP  0  0  0  0  0  0  0  0  0  0  0  0  # atno 5225 bound_to 1070

$$$$
IA_106.cdx|SeH_inactivess_minimized|sdf|8|dock5
  -GOLD-   4172118413D 1   1.00000     0.00000

 69 68  0  0  0  0  0  0  0  0  1 V2000
  -16.2539  -24.8357  -37.6865 C   0  0  0  0  0  0  0  0  0  0  0  0
  -14.9448  -24.6960  -37.4308 C   0  0  0  0  0  0  0  0  0  0  0  0
   -5.8107  -31.2902  -34.9990 C   0  0  0  0  0  0  0  0  0  0  0  0
  -25.1868  -24.6131  -34.7205 C   0  0  0  0  0  0  0  0  0  0  0  0
   -3.3225  -32.3265  -31.7182 C   0  0  0  0  0  0  0  0  0  0  0  0
  -17.1618  -25.7418  -36.9055 C   0  0  0  0  0  0  0  0  0  0  0  0
  -14.2254  -25.4266  -36.3346 C   0  0  0  0  0  0  0  0  0  0  0  0
  -23.7432  -25.0804  -34.8216 C   0  0  0  0  0  0  0  0  0  0  0  0
   -3.0735  -31.6239  -33.0452 C   0  0  0  0  0  0  0  0  0  0  0  0
  -18.4769  -25.0628  -36.5068 C   0  0  0  0  0  0  0  0  0  0  0  0
  -12.7020  -25.2898  -36.4301 C   0  0  0  0  0  0  0  0  0  0  0  0
  -23.0307  -24.4389  -36.0128 C   0  0  0  0  0  0  0  0  0  0  0  0
  -19.4588  -24.9204  -37.6745 C   0  0  0  0  0  0  0  0  0  0  0  0
  -11.8980  -26.2627  -35.5584 C   0  0  0  0  0  0  0  0  0  0  0  0
  -21.6257  -25.0002  -36.2527 C   0  0  0  0  0  0  0  0  0  0  0  0
  -20.7737  -24.2417  -37.2767 C   0  0  0  0  0  0  0  0  0  0  0  0
  -10.3808  -26.0545  -35.5528 C   0  0  0  0  0  0  0  0  0  0  0  0
   -9.6321  -27.0527  -34.6673 C   0  0  0  0  0  0  0  0  0  0  0  0
   -9.5296  -28.4225  -35.3423 C   0  0  0  0  0  0  0  0  0  0  0  0
   -8.4470  -29.2865  -34.6896 C   0  0  0  0  0  0  0  0  0  0  0  0
   -3.6928  -32.3603  -34.2270 C   0  0  0  0  0  0  0  0  0  0  0  0
   -8.1305  -30.5372  -35.5042 C   0  0  0  0  0  0  0  0  0  0  0  0
   -5.1330  -32.2492  -34.2510 N   0  0  0  0  0  0  0  0  0  0  0  0
   -7.1937  -31.4037  -34.8432 N   0  0  0  0  0  0  0  0  0  0  0  0
   -5.2643  -30.4475  -35.7095 O   0  0  0  0  0  0  0  0  0  0  0  0
  -16.6995  -24.2678  -38.4990 H   0  0  0  0  0  0  0  0  0  0  0  0
  -14.3507  -24.0178  -38.0385 H   0  0  0  0  0  0  0  0  0  0  0  0
  -25.6619  -25.0138  -33.8204 H   0  0  0  0  0  0  0  0  0  0  0  0
  -25.7590  -24.9578  -35.5874 H   0  0  0  0  0  0  0  0  0  0  0  0
  -25.2465  -23.5207  -34.6854 H   0  0  0  0  0  0  0  0  0  0  0  0
   -4.3937  -32.3848  -31.5003 H   0  0  0  0  0  0  0  0  0  0  0  0
   -2.9282  -33.3472  -31.7528 H   0  0  0  0  0  0  0  0  0  0  0  0
   -2.8302  -31.8046  -30.8918 H   0  0  0  0  0  0  0  0  0  0  0  0
  -17.3996  -26.6357  -37.4957 H   0  0  0  0  0  0  0  0  0  0  0  0
  -16.6323  -26.0930  -36.0121 H   0  0  0  0  0  0  0  0  0  0  0  0
  -14.5714  -25.1009  -35.3472 H   0  0  0  0  0  0  0  0  0  0  0  0
  -14.4840  -26.4897  -36.4127 H   0  0  0  0  0  0  0  0  0  0  0  0
  -23.2298  -24.8292  -33.8875 H   0  0  0  0  0  0  0  0  0  0  0  0
  -23.7242  -26.1717  -34.9215 H   0  0  0  0  0  0  0  0  0  0  0  0
   -1.9915  -31.5474  -33.2035 H   0  0  0  0  0  0  0  0  0  0  0  0
   -3.4664  -30.6016  -32.9908 H   0  0  0  0  0  0  0  0  0  0  0  0
  -18.2446  -24.0636  -36.1178 H   0  0  0  0  0  0  0  0  0  0  0  0
  -18.9384  -25.6238  -35.6857 H   0  0  0  0  0  0  0  0  0  0  0  0
  -12.4168  -24.2668  -36.1510 H   0  0  0  0  0  0  0  0  0  0  0  0
  -12.4038  -25.4058  -37.4788 H   0  0  0  0  0  0  0  0  0  0  0  0
  -23.6249  -24.6118  -36.9190 H   0  0  0  0  0  0  0  0  0  0  0  0
  -22.9849  -23.3521  -35.8806 H   0  0  0  0  0  0  0  0  0  0  0  0
  -19.6687  -25.8965  -38.1237 H   0  0  0  0  0  0  0  0  0  0  0  0
  -18.9887  -24.3156  -38.4601 H   0  0  0  0  0  0  0  0  0  0  0  0
  -12.1062  -27.2925  -35.8738 H   0  0  0  0  0  0  0  0  0  0  0  0
  -12.2675  -26.1836  -34.5281 H   0  0  0  0  0  0  0  0  0  0  0  0
  -21.7168  -26.0483  -36.5614 H   0  0  0  0  0  0  0  0  0  0  0  0
  -21.0831  -25.0159  -35.2989 H   0  0  0  0  0  0  0  0  0  0  0  0
  -20.5520  -23.2463  -36.8712 H   0  0  0  0  0  0  0  0  0  0  0  0
  -21.3655  -24.0696  -38.1835 H   0  0  0  0  0  0  0  0  0  0  0  0
  -10.1407  -25.0309  -35.2440 H   0  0  0  0  0  0  0  0  0  0  0  0
  -10.0235  -26.1549  -36.5857 H   0  0  0  0  0  0  0  0  0  0  0  0
   -8.6229  -26.6823  -34.4547 H   0  0  0  0  0  0  0  0  0  0  0  0
  -10.1516  -27.1550  -33.7070 H   0  0  0  0  0  0  0  0  0  0  0  0
   -9.3005  -28.2900  -36.4067 H   0  0  0  0  0  0  0  0  0  0  0  0
  -10.4990  -28.9309  -35.2796 H   0  0  0  0  0  0  0  0  0  0  0  0
   -8.7641  -29.5719  -33.6791 H   0  0  0  0  0  0  0  0  0  0  0  0
   -7.5289  -28.6958  -34.5855 H   0  0  0  0  0  0  0  0  0  0  0  0
   -3.3237  -31.9375  -35.1667 H   0  0  0  0  0  0  0  0  0  0  0  0
   -3.4389  -33.4248  -34.2092 H   0  0  0  0  0  0  0  0  0  0  0  0
   -7.6839  -30.2577  -36.4634 H   0  0  0  0  0  0  0  0  0  0  0  0
   -9.0377  -31.1161  -35.7046 H   0  0  0  0  0  0  0  0  0  0  0  0
   -5.6772  -32.9021  -33.6957 H   0  0  0  0  0  0  0  0  0  0  0  0
   -7.5527  -32.1642  -34.2689 H   0  0  0  0  0  0  0  0  0  0  0  0
  1  2  2  0  0  0  0
  1  6  1  0  0  0  0
  2  7  1  0  0  0  0
  3 23  1  0  0  0  0
  3 24  1  0  0  0  0
  3 25  2  0  0  0  0
  4  8  1  0  0  0  0
  5  9  1  0  0  0  0
  6 10  1  0  0  0  0
  7 11  1  0  0  0  0
  8 12  1  0  0  0  0
  9 21  1  0  0  0  0
 10 13  1  0  0  0  0
 11 14  1  0  0  0  0
 12 15  1  0  0  0  0
 13 16  1  0  0  0  0
 14 17  1  0  0  0  0
 15 16  1  0  0  0  0
 17 18  1  0  0  0  0
 18 19  1  0  0  0  0
 19 20  1  0  0  0  0
 20 22  1  0  0  0  0
 21 23  1  0  0  0  0
 22 24  1  0  0  0  0
  1 26  1  0  0  0  0
  2 27  1  0  0  0  0
  4 28  1  0  0  0  0
  4 29  1  0  0  0  0
  4 30  1  0  0  0  0
  5 31  1  0  0  0  0
  5 32  1  0  0  0  0
  5 33  1  0  0  0  0
  6 34  1  0  0  0  0
  6 35  1  0  0  0  0
  7 36  1  0  0  0  0
  7 37  1  0  0  0  0
  8 38  1  0  0  0  0
  8 39  1  0  0  0  0
  9 40  1  0  0  0  0
  9 41  1  0  0  0  0
 10 42  1  0  0  0  0
 10 43  1  0  0  0  0
 11 44  1  0  0  0  0
 11 45  1  0  0  0  0
 12 46  1  0  0  0  0
 12 47  1  0  0  0  0
 13 48  1  0  0  0  0
 13 49  1  0  0  0  0
 14 50  1  0  0  0  0
 14 51  1  0  0  0  0
 15 52  1  0  0  0  0
 15 53  1  0  0  0  0
 16 54  1  0  0  0  0
 16 55  1  0  0  0  0
 17 56  1  0  0  0  0
 17 57  1  0  0  0  0
 18 58  1  0  0  0  0
 18 59  1  0  0  0  0
 19 60  1  0  0  0  0
 19 61  1  0  0  0  0
 20 62  1  0  0  0  0
 20 63  1  0  0  0  0
 21 64  1  0  0  0  0
 21 65  1  0  0  0  0
 22 66  1  0  0  0  0
 22 67  1  0  0  0  0
 23 68  1  0  0  0  0
 24 69  1  0  0  0  0
M  END
> <Name>
IA_106.cdx

> <SourceTag>
IA_106

> <Gold.Version>
5.2

> <Gold.Id.Protein>
6HGV|6HGV_protein|mol2

> <Gold.Goldscore.Fitness>
79.6137

> <Gold.Goldscore.Internal.Vdw>
-9.4493

> <Gold.Goldscore.Internal.Torsion>
-5.9769

> <Gold.Goldscore.External.Vdw>
59.5929

> <Gold.Goldscore.Internal.HBond>
0.0000

> <Gold.Goldscore.External.HBond>
0.6198

> <Gold.Goldscore.Internal.Correction>
-12.4799

> <Gold.Goldscore.Hbonds>
donor molecule, donor type, donor heavy atom, donor atom, acceptor molecule, acceptor atom, score
      P1  H  1994  4571       L1    25  0.31

> <Gold.Goldscore.Internal.Vdw.Weighted>
-9.4493

> <Gold.Goldscore.Internal.Torsion.Weighted>
-5.9769

> <Gold.Goldscore.External.Vdw.Weighted>
81.9402

> <Gold.Goldscore.Internal.HBond.Weighted>
0.0000

> <Gold.Goldscore.External.HBond.Weighted>
0.6198

> <Gold.Goldscore.Internal.Correction.Weighted>
-12.4799

> <Gold.Protein.RotatedTorsions>
[ 3781 1176 1175 1172 ] final -117.13 input   60.00 | X-H torsion
[ 3847 1247 1246 1244 ] final  107.53 input   60.00 | X-H torsion
[ 4507 1931 1930 1928 ] final -100.16 input   60.00 | X-H torsion
[ 3677 1070 1069 1066 ] final -109.00 input   60.00 | X-H torsion
[ 3525  925  924  922 ] final   -6.13 input   59.99 | X-H torsion
[ 4531 1957 1955 1953 ] final  100.44 input   60.00 | X-H torsion

> <Gold.Protein.ActiveResidues>
 PHE267  PRO268  MET310  ASP335  TRP336  MET339  TYR343  THR360  PRO361  ILE363
 PRO371  SER374  ILE375  ASN378  PHE381  TYR383  GLN384  PHE387  LEU408  LEU417
 MET419  LEU428  TYR466  MET469  ASN472  ASP496  VAL498  LEU499  MET503  HIS524
 TRP525

> <Gold.Protein.RotatedAtoms>
   -3.6488  -29.5311  -30.3911 H   0  0  0  0  0  0  0  0  0  0  0  0  # atno 3525 bound_to 925
  -11.6073  -23.6853  -31.4404 H   0  0  0  0  0  0  0  0  0  0  0  0  # atno 3677 bound_to 1070
   -9.4962  -36.3223  -33.7898 H   0  0  0  0  0  0  0  0  0  0  0  0  # atno 3781 bound_to 1176
  -14.3562  -28.4692  -37.6814 H   0  0  0  0  0  0  0  0  0  0  0  0  # atno 3847 bound_to 1247
  -13.6224  -24.7661  -40.3643 H   0  0  0  0  0  0  0  0  0  0  0  0  # atno 4507 bound_to 1931
   -2.6678  -33.9260  -36.7496 H   0  0  0  0  0  0  0  0  0  0  0  0  # atno 4531 bound_to 1957
   -9.8015  -37.0550  -32.3692 LP  0  0  0  0  0  0  0  0  0  0  0  0  # atno 5205 bound_to 1176
  -10.8169  -37.2597  -33.6316 LP  0  0  0  0  0  0  0  0  0  0  0  0  # atno 5206 bound_to 1176
  -15.8531  -28.5726  -37.0516 LP  0  0  0  0  0  0  0  0  0  0  0  0  # atno 5215 bound_to 1247
  -15.3610  -27.1925  -37.7726 LP  0  0  0  0  0  0  0  0  0  0  0  0  # atno 5216 bound_to 1247
  -12.5258  -23.8046  -39.6425 LP  0  0  0  0  0  0  0  0  0  0  0  0  # atno 5217 bound_to 1931
  -13.0426  -25.1621  -38.8963 LP  0  0  0  0  0  0  0  0  0  0  0  0  # atno 5218 bound_to 1931
  -11.4360  -22.2432  -30.7063 LP  0  0  0  0  0  0  0  0  0  0  0  0  # atno 5224 bound_to 1070
  -12.8131  -23.1003  -30.5174 LP  0  0  0  0  0  0  0  0  0  0  0  0  # atno 5225 bound_to 1070

$$$$
IA_106.cdx|SeH_inactivess_minimized|sdf|8|dock4
  -GOLD-   4172118413D 1   1.00000     0.00000

 69 68  0  0  0  0  0  0  0  0  1 V2000
  -13.3031  -24.9571  -36.8316 C   0  0  0  0  0  0  0  0  0  0  0  0
  -12.0678  -25.2708  -36.4141 C   0  0  0  0  0  0  0  0  0  0  0  0
   -6.0165  -34.5090  -34.7434 C   0  0  0  0  0  0  0  0  0  0  0  0
  -22.0607  -23.1283  -38.8945 C   0  0  0  0  0  0  0  0  0  0  0  0
   -6.0095  -37.8507  -31.7052 C   0  0  0  0  0  0  0  0  0  0  0  0
  -14.5558  -25.4253  -36.1483 C   0  0  0  0  0  0  0  0  0  0  0  0
  -11.7839  -26.1273  -35.2146 C   0  0  0  0  0  0  0  0  0  0  0  0
  -21.1501  -24.1060  -38.1683 C   0  0  0  0  0  0  0  0  0  0  0  0
   -4.9473  -37.4336  -32.7124 C   0  0  0  0  0  0  0  0  0  0  0  0
  -15.8274  -24.8553  -36.7866 C   0  0  0  0  0  0  0  0  0  0  0  0
  -10.7887  -27.2541  -35.5116 C   0  0  0  0  0  0  0  0  0  0  0  0
  -19.7605  -24.1531  -38.8047 C   0  0  0  0  0  0  0  0  0  0  0  0
  -17.1134  -25.3926  -36.1497 C   0  0  0  0  0  0  0  0  0  0  0  0
  -10.2700  -28.0144  -34.2845 C   0  0  0  0  0  0  0  0  0  0  0  0
  -18.8025  -25.1168  -38.0976 C   0  0  0  0  0  0  0  0  0  0  0  0
  -18.3790  -24.7118  -36.6811 C   0  0  0  0  0  0  0  0  0  0  0  0
   -9.0529  -28.9130  -34.5227 C   0  0  0  0  0  0  0  0  0  0  0  0
   -9.3333  -30.0792  -35.4727 C   0  0  0  0  0  0  0  0  0  0  0  0
   -8.2338  -31.1403  -35.3853 C   0  0  0  0  0  0  0  0  0  0  0  0
   -8.6445  -32.4296  -36.1022 C   0  0  0  0  0  0  0  0  0  0  0  0
   -4.9565  -35.9356  -32.9918 C   0  0  0  0  0  0  0  0  0  0  0  0
   -7.4526  -33.3329  -36.4042 C   0  0  0  0  0  0  0  0  0  0  0  0
   -6.0821  -35.5342  -33.8036 N   0  0  0  0  0  0  0  0  0  0  0  0
   -7.2418  -34.3266  -35.3875 N   0  0  0  0  0  0  0  0  0  0  0  0
   -5.0080  -33.8452  -34.9802 O   0  0  0  0  0  0  0  0  0  0  0  0
  -13.4228  -24.3286  -37.7101 H   0  0  0  0  0  0  0  0  0  0  0  0
  -11.2068  -24.8919  -36.9593 H   0  0  0  0  0  0  0  0  0  0  0  0
  -22.1526  -23.3957  -39.9512 H   0  0  0  0  0  0  0  0  0  0  0  0
  -21.6527  -22.1145  -38.8361 H   0  0  0  0  0  0  0  0  0  0  0  0
  -23.0620  -23.1185  -38.4524 H   0  0  0  0  0  0  0  0  0  0  0  0
   -5.9307  -38.9171  -31.4710 H   0  0  0  0  0  0  0  0  0  0  0  0
   -5.8859  -37.2896  -30.7734 H   0  0  0  0  0  0  0  0  0  0  0  0
   -7.0174  -37.6543  -32.0838 H   0  0  0  0  0  0  0  0  0  0  0  0
  -14.6145  -26.5205  -36.1798 H   0  0  0  0  0  0  0  0  0  0  0  0
  -14.5086  -25.1484  -35.0887 H   0  0  0  0  0  0  0  0  0  0  0  0
  -11.4289  -25.5241  -34.3714 H   0  0  0  0  0  0  0  0  0  0  0  0
  -12.7306  -26.5767  -34.8904 H   0  0  0  0  0  0  0  0  0  0  0  0
  -21.0805  -23.8027  -37.1184 H   0  0  0  0  0  0  0  0  0  0  0  0
  -21.6026  -25.1040  -38.1906 H   0  0  0  0  0  0  0  0  0  0  0  0
   -5.1252  -37.9701  -33.6516 H   0  0  0  0  0  0  0  0  0  0  0  0
   -3.9614  -37.7419  -32.3445 H   0  0  0  0  0  0  0  0  0  0  0  0
  -15.8256  -25.1176  -37.8520 H   0  0  0  0  0  0  0  0  0  0  0  0
  -15.8009  -23.7608  -36.7291 H   0  0  0  0  0  0  0  0  0  0  0  0
   -9.9242  -26.8364  -36.0442 H   0  0  0  0  0  0  0  0  0  0  0  0
  -11.2549  -27.9599  -36.2092 H   0  0  0  0  0  0  0  0  0  0  0  0
  -19.8574  -24.4757  -39.8491 H   0  0  0  0  0  0  0  0  0  0  0  0
  -19.3284  -23.1466  -38.8349 H   0  0  0  0  0  0  0  0  0  0  0  0
  -17.0734  -25.2976  -35.0598 H   0  0  0  0  0  0  0  0  0  0  0  0
  -17.1910  -26.4664  -36.3616 H   0  0  0  0  0  0  0  0  0  0  0  0
  -11.0780  -28.6274  -33.8666 H   0  0  0  0  0  0  0  0  0  0  0  0
  -10.0182  -27.2800  -33.5088 H   0  0  0  0  0  0  0  0  0  0  0  0
  -17.9097  -25.2416  -38.7216 H   0  0  0  0  0  0  0  0  0  0  0  0
  -19.2714  -26.1077  -38.0456 H   0  0  0  0  0  0  0  0  0  0  0  0
  -19.2113  -24.9247  -35.9982 H   0  0  0  0  0  0  0  0  0  0  0  0
  -18.2326  -23.6257  -36.6438 H   0  0  0  0  0  0  0  0  0  0  0  0
   -8.6719  -29.2943  -33.5687 H   0  0  0  0  0  0  0  0  0  0  0  0
   -8.2535  -28.2915  -34.9458 H   0  0  0  0  0  0  0  0  0  0  0  0
  -10.2961  -30.5406  -35.2264 H   0  0  0  0  0  0  0  0  0  0  0  0
   -9.4030  -29.7073  -36.5019 H   0  0  0  0  0  0  0  0  0  0  0  0
   -8.0189  -31.3591  -34.3322 H   0  0  0  0  0  0  0  0  0  0  0  0
   -7.3125  -30.7452  -35.8295 H   0  0  0  0  0  0  0  0  0  0  0  0
   -9.1678  -32.1814  -37.0337 H   0  0  0  0  0  0  0  0  0  0  0  0
   -9.3513  -32.9827  -35.4719 H   0  0  0  0  0  0  0  0  0  0  0  0
   -5.0260  -35.3797  -32.0514 H   0  0  0  0  0  0  0  0  0  0  0  0
   -4.0430  -35.6217  -33.5065 H   0  0  0  0  0  0  0  0  0  0  0  0
   -6.5358  -32.7380  -36.4630 H   0  0  0  0  0  0  0  0  0  0  0  0
   -7.5850  -33.8532  -37.3580 H   0  0  0  0  0  0  0  0  0  0  0  0
   -6.9636  -36.0233  -33.6831 H   0  0  0  0  0  0  0  0  0  0  0  0
   -8.0067  -34.9575  -35.1549 H   0  0  0  0  0  0  0  0  0  0  0  0
  1  2  2  0  0  0  0
  1  6  1  0  0  0  0
  2  7  1  0  0  0  0
  3 23  1  0  0  0  0
  3 24  1  0  0  0  0
  3 25  2  0  0  0  0
  4  8  1  0  0  0  0
  5  9  1  0  0  0  0
  6 10  1  0  0  0  0
  7 11  1  0  0  0  0
  8 12  1  0  0  0  0
  9 21  1  0  0  0  0
 10 13  1  0  0  0  0
 11 14  1  0  0  0  0
 12 15  1  0  0  0  0
 13 16  1  0  0  0  0
 14 17  1  0  0  0  0
 15 16  1  0  0  0  0
 17 18  1  0  0  0  0
 18 19  1  0  0  0  0
 19 20  1  0  0  0  0
 20 22  1  0  0  0  0
 21 23  1  0  0  0  0
 22 24  1  0  0  0  0
  1 26  1  0  0  0  0
  2 27  1  0  0  0  0
  4 28  1  0  0  0  0
  4 29  1  0  0  0  0
  4 30  1  0  0  0  0
  5 31  1  0  0  0  0
  5 32  1  0  0  0  0
  5 33  1  0  0  0  0
  6 34  1  0  0  0  0
  6 35  1  0  0  0  0
  7 36  1  0  0  0  0
  7 37  1  0  0  0  0
  8 38  1  0  0  0  0
  8 39  1  0  0  0  0
  9 40  1  0  0  0  0
  9 41  1  0  0  0  0
 10 42  1  0  0  0  0
 10 43  1  0  0  0  0
 11 44  1  0  0  0  0
 11 45  1  0  0  0  0
 12 46  1  0  0  0  0
 12 47  1  0  0  0  0
 13 48  1  0  0  0  0
 13 49  1  0  0  0  0
 14 50  1  0  0  0  0
 14 51  1  0  0  0  0
 15 52  1  0  0  0  0
 15 53  1  0  0  0  0
 16 54  1  0  0  0  0
 16 55  1  0  0  0  0
 17 56  1  0  0  0  0
 17 57  1  0  0  0  0
 18 58  1  0  0  0  0
 18 59  1  0  0  0  0
 19 60  1  0  0  0  0
 19 61  1  0  0  0  0
 20 62  1  0  0  0  0
 20 63  1  0  0  0  0
 21 64  1  0  0  0  0
 21 65  1  0  0  0  0
 22 66  1  0  0  0  0
 22 67  1  0  0  0  0
 23 68  1  0  0  0  0
 24 69  1  0  0  0  0
M  END
> <Name>
IA_106.cdx

> <SourceTag>
IA_106

> <Gold.Version>
5.2

> <Gold.Id.Protein>
6HGV|6HGV_protein|mol2

> <Gold.Goldscore.Fitness>
77.2159

> <Gold.Goldscore.Internal.Vdw>
-11.6105

> <Gold.Goldscore.Internal.Torsion>
-8.6053

> <Gold.Goldscore.External.Vdw>
60.6250

> <Gold.Goldscore.Internal.HBond>
0.0000

> <Gold.Goldscore.External.HBond>
1.5923

> <Gold.Goldscore.Internal.Correction>
-12.4799

> <Gold.Goldscore.Hbonds>
donor molecule, donor type, donor heavy atom, donor atom, acceptor molecule, acceptor atom, score
      P1  H  1957  4531       L1    25  0.55
      L1  H    23    68       P1  1176  0.22
      L1  H    24    69       P1  1176  0.02

> <Gold.Goldscore.Internal.Vdw.Weighted>
-11.6105

> <Gold.Goldscore.Internal.Torsion.Weighted>
-8.6053

> <Gold.Goldscore.External.Vdw.Weighted>
83.3594

> <Gold.Goldscore.Internal.HBond.Weighted>
0.0000

> <Gold.Goldscore.External.HBond.Weighted>
1.5923

> <Gold.Goldscore.Internal.Correction.Weighted>
-12.4799

> <Gold.Protein.RotatedTorsions>
[ 3781 1176 1175 1172 ] final  174.65 input   60.00 | X-H torsion
[ 3847 1247 1246 1244 ] final   99.56 input   60.00 | X-H torsion
[ 4507 1931 1930 1928 ] final  -76.19 input   60.00 | X-H torsion
[ 3677 1070 1069 1066 ] final -102.44 input   60.00 | X-H torsion
[ 3525  925  924  922 ] final  -76.70 input   59.99 | X-H torsion
[ 4531 1957 1955 1953 ] final   60.01 input   60.00 | X-H torsion

> <Gold.Protein.ActiveResidues>
 PHE267  PRO268  MET310  ASP335  TRP336  MET339  TYR343  THR360  PRO361  ILE363
 PRO371  SER374  ILE375  ASN378  PHE381  TYR383  GLN384  PHE387  LEU408  LEU417
 MET419  LEU428  TYR466  MET469  ASN472  ASP496  VAL498  LEU499  MET503  HIS524
 TRP525

> <Gold.Protein.RotatedAtoms>
   -3.5770  -29.6604  -29.3197 H   0  0  0  0  0  0  0  0  0  0  0  0  # atno 3525 bound_to 925
  -11.6996  -23.7370  -31.4245 H   0  0  0  0  0  0  0  0  0  0  0  0  # atno 3677 bound_to 1070
   -9.2951  -36.5635  -32.7878 H   0  0  0  0  0  0  0  0  0  0  0  0  # atno 3781 bound_to 1176
  -14.4033  -28.5752  -37.6223 H   0  0  0  0  0  0  0  0  0  0  0  0  # atno 3847 bound_to 1247
  -13.6946  -25.0660  -40.1279 H   0  0  0  0  0  0  0  0  0  0  0  0  # atno 4507 bound_to 1931
   -3.0565  -33.4153  -36.6669 H   0  0  0  0  0  0  0  0  0  0  0  0  # atno 4531 bound_to 1957
  -10.6593  -37.4488  -32.8460 LP  0  0  0  0  0  0  0  0  0  0  0  0  # atno 5205 bound_to 1176
  -10.1615  -36.6230  -34.1639 LP  0  0  0  0  0  0  0  0  0  0  0  0  # atno 5206 bound_to 1176
  -15.9276  -28.4655  -37.0633 LP  0  0  0  0  0  0  0  0  0  0  0  0  # atno 5215 bound_to 1247
  -15.2390  -27.1930  -37.8204 LP  0  0  0  0  0  0  0  0  0  0  0  0  # atno 5216 bound_to 1247
  -12.7096  -23.7784  -39.9871 LP  0  0  0  0  0  0  0  0  0  0  0  0  # atno 5217 bound_to 1931
  -12.7861  -24.8863  -38.7898 LP  0  0  0  0  0  0  0  0  0  0  0  0  # atno 5218 bound_to 1931
  -11.3599  -22.2869  -30.7687 LP  0  0  0  0  0  0  0  0  0  0  0  0  # atno 5224 bound_to 1070
  -12.7963  -23.0045  -30.4711 LP  0  0  0  0  0  0  0  0  0  0  0  0  # atno 5225 bound_to 1070

$$$$
IA_106.cdx|SeH_inactivess_minimized|sdf|8|dock2
  -GOLD-   4172118403D 1   1.00000     0.00000

 69 68  0  0  0  0  0  0  0  0  1 V2000
  -16.2604  -24.4209  -38.9664 C   0  0  0  0  0  0  0  0  0  0  0  0
  -15.2632  -25.0830  -38.3615 C   0  0  0  0  0  0  0  0  0  0  0  0
   -5.8906  -30.7712  -34.8948 C   0  0  0  0  0  0  0  0  0  0  0  0
  -24.4911  -24.2528  -34.3907 C   0  0  0  0  0  0  0  0  0  0  0  0
   -4.2406  -32.5125  -32.6655 C   0  0  0  0  0  0  0  0  0  0  0  0
  -17.3830  -23.7514  -38.2268 C   0  0  0  0  0  0  0  0  0  0  0  0
  -15.1451  -25.2371  -36.8731 C   0  0  0  0  0  0  0  0  0  0  0  0
  -24.2807  -25.4340  -35.3251 C   0  0  0  0  0  0  0  0  0  0  0  0
   -4.1853  -33.4268  -33.8810 C   0  0  0  0  0  0  0  0  0  0  0  0
  -18.6828  -24.5629  -38.2618 C   0  0  0  0  0  0  0  0  0  0  0  0
  -13.9034  -26.0318  -36.4551 C   0  0  0  0  0  0  0  0  0  0  0  0
  -23.5277  -25.0185  -36.5895 C   0  0  0  0  0  0  0  0  0  0  0  0
  -19.7371  -24.0535  -37.2733 C   0  0  0  0  0  0  0  0  0  0  0  0
  -12.5594  -25.3457  -36.7305 C   0  0  0  0  0  0  0  0  0  0  0  0
  -22.0946  -24.5516  -36.3156 C   0  0  0  0  0  0  0  0  0  0  0  0
  -21.1191  -24.6781  -37.4913 C   0  0  0  0  0  0  0  0  0  0  0  0
  -11.4016  -25.7565  -35.8160 C   0  0  0  0  0  0  0  0  0  0  0  0
  -10.8679  -27.1616  -36.1024 C   0  0  0  0  0  0  0  0  0  0  0  0
   -9.6453  -27.4759  -35.2371 C   0  0  0  0  0  0  0  0  0  0  0  0
   -9.1141  -28.8853  -35.5128 C   0  0  0  0  0  0  0  0  0  0  0  0
   -4.2940  -32.6650  -35.1964 C   0  0  0  0  0  0  0  0  0  0  0  0
   -7.7806  -29.1507  -34.8205 C   0  0  0  0  0  0  0  0  0  0  0  0
   -5.5875  -32.0451  -35.3680 N   0  0  0  0  0  0  0  0  0  0  0  0
   -7.2069  -30.4143  -35.1941 N   0  0  0  0  0  0  0  0  0  0  0  0
   -5.1011  -30.0474  -34.2894 O   0  0  0  0  0  0  0  0  0  0  0  0
  -16.2716  -24.3536  -40.0511 H   0  0  0  0  0  0  0  0  0  0  0  0
  -14.4825  -25.5406  -38.9641 H   0  0  0  0  0  0  0  0  0  0  0  0
  -25.0855  -24.5475  -33.5210 H   0  0  0  0  0  0  0  0  0  0  0  0
  -25.0241  -23.4493  -34.9085 H   0  0  0  0  0  0  0  0  0  0  0  0
  -23.5351  -23.8544  -34.0366 H   0  0  0  0  0  0  0  0  0  0  0  0
   -3.4600  -31.7467  -32.7148 H   0  0  0  0  0  0  0  0  0  0  0  0
   -5.2097  -32.0054  -32.6195 H   0  0  0  0  0  0  0  0  0  0  0  0
   -4.1127  -33.0761  -31.7361 H   0  0  0  0  0  0  0  0  0  0  0  0
  -17.1017  -23.5946  -37.1779 H   0  0  0  0  0  0  0  0  0  0  0  0
  -17.5480  -22.7557  -38.6550 H   0  0  0  0  0  0  0  0  0  0  0  0
  -15.1550  -24.2629  -36.3713 H   0  0  0  0  0  0  0  0  0  0  0  0
  -16.0350  -25.7715  -36.5186 H   0  0  0  0  0  0  0  0  0  0  0  0
  -23.7261  -26.2095  -34.7865 H   0  0  0  0  0  0  0  0  0  0  0  0
  -25.2549  -25.8571  -35.5955 H   0  0  0  0  0  0  0  0  0  0  0  0
   -5.0120  -34.1439  -33.8179 H   0  0  0  0  0  0  0  0  0  0  0  0
   -3.2530  -34.0035  -33.8559 H   0  0  0  0  0  0  0  0  0  0  0  0
  -18.4448  -25.6055  -38.0168 H   0  0  0  0  0  0  0  0  0  0  0  0
  -19.0831  -24.5600  -39.2824 H   0  0  0  0  0  0  0  0  0  0  0  0
  -13.9055  -26.9985  -36.9758 H   0  0  0  0  0  0  0  0  0  0  0  0
  -13.9810  -26.2691  -35.3874 H   0  0  0  0  0  0  0  0  0  0  0  0
  -23.4810  -25.8747  -37.2743 H   0  0  0  0  0  0  0  0  0  0  0  0
  -24.0848  -24.2359  -37.1167 H   0  0  0  0  0  0  0  0  0  0  0  0
  -19.8141  -22.9623  -37.3191 H   0  0  0  0  0  0  0  0  0  0  0  0
  -19.4120  -24.2958  -36.2536 H   0  0  0  0  0  0  0  0  0  0  0  0
  -12.6848  -24.2580  -36.6650 H   0  0  0  0  0  0  0  0  0  0  0  0
  -12.2766  -25.5534  -37.7704 H   0  0  0  0  0  0  0  0  0  0  0  0
  -21.7035  -25.1109  -35.4576 H   0  0  0  0  0  0  0  0  0  0  0  0
  -22.1187  -23.5005  -36.0011 H   0  0  0  0  0  0  0  0  0  0  0  0
  -21.5818  -24.2193  -38.3743 H   0  0  0  0  0  0  0  0  0  0  0  0
  -20.9875  -25.7379  -37.7399 H   0  0  0  0  0  0  0  0  0  0  0  0
  -11.7044  -25.6810  -34.7656 H   0  0  0  0  0  0  0  0  0  0  0  0
  -10.5900  -25.0308  -35.9541 H   0  0  0  0  0  0  0  0  0  0  0  0
  -11.6470  -27.9063  -35.9048 H   0  0  0  0  0  0  0  0  0  0  0  0
  -10.5982  -27.2442  -37.1621 H   0  0  0  0  0  0  0  0  0  0  0  0
   -9.9139  -27.3862  -34.1774 H   0  0  0  0  0  0  0  0  0  0  0  0
   -8.8603  -26.7369  -35.4367 H   0  0  0  0  0  0  0  0  0  0  0  0
   -9.0067  -29.0325  -36.5945 H   0  0  0  0  0  0  0  0  0  0  0  0
   -9.8450  -29.6216  -35.1574 H   0  0  0  0  0  0  0  0  0  0  0  0
   -3.5487  -31.8640  -35.2279 H   0  0  0  0  0  0  0  0  0  0  0  0
   -4.1219  -33.3244  -36.0529 H   0  0  0  0  0  0  0  0  0  0  0  0
   -7.9185  -29.1719  -33.7351 H   0  0  0  0  0  0  0  0  0  0  0  0
   -7.0518  -28.3692  -35.0579 H   0  0  0  0  0  0  0  0  0  0  0  0
   -6.3105  -32.5633  -35.8574 H   0  0  0  0  0  0  0  0  0  0  0  0
   -7.7695  -31.0638  -35.7407 H   0  0  0  0  0  0  0  0  0  0  0  0
  1  2  2  0  0  0  0
  1  6  1  0  0  0  0
  2  7  1  0  0  0  0
  3 23  1  0  0  0  0
  3 24  1  0  0  0  0
  3 25  2  0  0  0  0
  4  8  1  0  0  0  0
  5  9  1  0  0  0  0
  6 10  1  0  0  0  0
  7 11  1  0  0  0  0
  8 12  1  0  0  0  0
  9 21  1  0  0  0  0
 10 13  1  0  0  0  0
 11 14  1  0  0  0  0
 12 15  1  0  0  0  0
 13 16  1  0  0  0  0
 14 17  1  0  0  0  0
 15 16  1  0  0  0  0
 17 18  1  0  0  0  0
 18 19  1  0  0  0  0
 19 20  1  0  0  0  0
 20 22  1  0  0  0  0
 21 23  1  0  0  0  0
 22 24  1  0  0  0  0
  1 26  1  0  0  0  0
  2 27  1  0  0  0  0
  4 28  1  0  0  0  0
  4 29  1  0  0  0  0
  4 30  1  0  0  0  0
  5 31  1  0  0  0  0
  5 32  1  0  0  0  0
  5 33  1  0  0  0  0
  6 34  1  0  0  0  0
  6 35  1  0  0  0  0
  7 36  1  0  0  0  0
  7 37  1  0  0  0  0
  8 38  1  0  0  0  0
  8 39  1  0  0  0  0
  9 40  1  0  0  0  0
  9 41  1  0  0  0  0
 10 42  1  0  0  0  0
 10 43  1  0  0  0  0
 11 44  1  0  0  0  0
 11 45  1  0  0  0  0
 12 46  1  0  0  0  0
 12 47  1  0  0  0  0
 13 48  1  0  0  0  0
 13 49  1  0  0  0  0
 14 50  1  0  0  0  0
 14 51  1  0  0  0  0
 15 52  1  0  0  0  0
 15 53  1  0  0  0  0
 16 54  1  0  0  0  0
 16 55  1  0  0  0  0
 17 56  1  0  0  0  0
 17 57  1  0  0  0  0
 18 58  1  0  0  0  0
 18 59  1  0  0  0  0
 19 60  1  0  0  0  0
 19 61  1  0  0  0  0
 20 62  1  0  0  0  0
 20 63  1  0  0  0  0
 21 64  1  0  0  0  0
 21 65  1  0  0  0  0
 22 66  1  0  0  0  0
 22 67  1  0  0  0  0
 23 68  1  0  0  0  0
 24 69  1  0  0  0  0
M  END
> <Name>
IA_106.cdx

> <SourceTag>
IA_106

> <Gold.Version>
5.2

> <Gold.Id.Protein>
6HGV|6HGV_protein|mol2

> <Gold.Goldscore.Fitness>
76.9605

> <Gold.Goldscore.Internal.Vdw>
-7.1166

> <Gold.Goldscore.Internal.Torsion>
-7.5516

> <Gold.Goldscore.External.Vdw>
57.5627

> <Gold.Goldscore.Internal.HBond>
0.0000

> <Gold.Goldscore.External.HBond>
0.0000

> <Gold.Goldscore.Internal.Correction>
-12.4799

> <Gold.Goldscore.Internal.Vdw.Weighted>
-7.1166

> <Gold.Goldscore.Internal.Torsion.Weighted>
-7.5516

> <Gold.Goldscore.External.Vdw.Weighted>
79.1487

> <Gold.Goldscore.Internal.HBond.Weighted>
0.0000

> <Gold.Goldscore.External.HBond.Weighted>
0.0000

> <Gold.Goldscore.Internal.Correction.Weighted>
-12.4799

> <Gold.Protein.RotatedTorsions>
[ 3781 1176 1175 1172 ] final  -99.90 input   60.00 | X-H torsion
[ 3847 1247 1246 1244 ] final  -41.69 input   60.00 | X-H torsion
[ 4507 1931 1930 1928 ] final  141.63 input   60.00 | X-H torsion
[ 3677 1070 1069 1066 ] final  -96.60 input   60.00 | X-H torsion
[ 3525  925  924  922 ] final   25.07 input   59.99 | X-H torsion
[ 4531 1957 1955 1953 ] final  150.07 input   60.00 | X-H torsion

> <Gold.Protein.ActiveResidues>
 PHE267  PRO268  MET310  ASP335  TRP336  MET339  TYR343  THR360  PRO361  ILE363
 PRO371  SER374  ILE375  ASN378  PHE381  TYR383  GLN384  PHE387  LEU408  LEU417
 MET419  LEU428  TYR466  MET469  ASN472  ASP496  VAL498  LEU499  MET503  HIS524
 TRP525

> <Gold.Protein.RotatedAtoms>
   -3.3124  -29.6451  -30.7482 H   0  0  0  0  0  0  0  0  0  0  0  0  # atno 3525 bound_to 925
  -11.7848  -23.7751  -31.4043 H   0  0  0  0  0  0  0  0  0  0  0  0  # atno 3677 bound_to 1070
   -9.6929  -36.3821  -33.9807 H   0  0  0  0  0  0  0  0  0  0  0  0  # atno 3781 bound_to 1176
  -16.0483  -28.1497  -37.1395 H   0  0  0  0  0  0  0  0  0  0  0  0  # atno 3847 bound_to 1247
  -12.5386  -23.8045  -39.6698 H   0  0  0  0  0  0  0  0  0  0  0  0  # atno 4507 bound_to 1931
   -1.9019  -34.0230  -36.8969 H   0  0  0  0  0  0  0  0  0  0  0  0  # atno 4531 bound_to 1957
   -9.5857  -36.8857  -32.4370 LP  0  0  0  0  0  0  0  0  0  0  0  0  # atno 5205 bound_to 1176
  -10.8346  -37.3688  -33.3716 LP  0  0  0  0  0  0  0  0  0  0  0  0  # atno 5206 bound_to 1176
  -14.9152  -27.2767  -37.9154 LP  0  0  0  0  0  0  0  0  0  0  0  0  # atno 5215 bound_to 1247
  -14.5948  -28.8102  -37.4545 LP  0  0  0  0  0  0  0  0  0  0  0  0  # atno 5216 bound_to 1247
  -13.0228  -25.1445  -38.8836 LP  0  0  0  0  0  0  0  0  0  0  0  0  # atno 5217 bound_to 1931
  -13.6371  -24.7905  -40.3546 LP  0  0  0  0  0  0  0  0  0  0  0  0  # atno 5218 bound_to 1931
  -11.2984  -22.3340  -30.8257 LP  0  0  0  0  0  0  0  0  0  0  0  0  # atno 5224 bound_to 1070
  -12.7720  -22.9190  -30.4344 LP  0  0  0  0  0  0  0  0  0  0  0  0  # atno 5225 bound_to 1070

$$$$
IA_106.cdx|SeH_inactivess_minimized|sdf|8|dock6
  -GOLD-   4172118423D 1   1.00000     0.00000

 69 68  0  0  0  0  0  0  0  0  1 V2000
  -14.6654  -26.1684  -36.3643 C   0  0  0  0  0  0  0  0  0  0  0  0
  -13.4472  -26.2476  -35.8090 C   0  0  0  0  0  0  0  0  0  0  0  0
   -4.6628  -32.7841  -33.8372 C   0  0  0  0  0  0  0  0  0  0  0  0
  -23.0229  -23.0878  -38.8334 C   0  0  0  0  0  0  0  0  0  0  0  0
   -5.2988  -37.4897  -33.1654 C   0  0  0  0  0  0  0  0  0  0  0  0
  -14.9698  -25.3542  -37.5889 C   0  0  0  0  0  0  0  0  0  0  0  0
  -12.2388  -25.5337  -36.3412 C   0  0  0  0  0  0  0  0  0  0  0  0
  -21.5413  -23.3186  -38.5805 C   0  0  0  0  0  0  0  0  0  0  0  0
   -5.7509  -36.0365  -33.1457 C   0  0  0  0  0  0  0  0  0  0  0  0
  -16.4363  -25.4608  -38.0220 C   0  0  0  0  0  0  0  0  0  0  0  0
  -10.9637  -25.8577  -35.5554 C   0  0  0  0  0  0  0  0  0  0  0  0
  -21.3022  -23.9716  -37.2186 C   0  0  0  0  0  0  0  0  0  0  0  0
  -17.3777  -24.5956  -37.1774 C   0  0  0  0  0  0  0  0  0  0  0  0
  -10.3136  -27.2077  -35.8835 C   0  0  0  0  0  0  0  0  0  0  0  0
  -19.8417  -23.9034  -36.7618 C   0  0  0  0  0  0  0  0  0  0  0  0
  -18.8465  -24.7176  -37.5964 C   0  0  0  0  0  0  0  0  0  0  0  0
   -9.2351  -27.6833  -34.9057 C   0  0  0  0  0  0  0  0  0  0  0  0
   -8.4602  -28.9062  -35.4009 C   0  0  0  0  0  0  0  0  0  0  0  0
   -7.1660  -29.0996  -34.6071 C   0  0  0  0  0  0  0  0  0  0  0  0
   -6.2071  -30.0521  -35.3269 C   0  0  0  0  0  0  0  0  0  0  0  0
   -4.6136  -35.0700  -32.8378 C   0  0  0  0  0  0  0  0  0  0  0  0
   -4.9866  -30.3995  -34.4798 C   0  0  0  0  0  0  0  0  0  0  0  0
   -5.0442  -33.6911  -32.8521 N   0  0  0  0  0  0  0  0  0  0  0  0
   -5.2181  -31.5226  -33.6134 N   0  0  0  0  0  0  0  0  0  0  0  0
   -3.9297  -33.0555  -34.7872 O   0  0  0  0  0  0  0  0  0  0  0  0
  -15.4891  -26.7189  -35.9176 H   0  0  0  0  0  0  0  0  0  0  0  0
  -13.3023  -26.8605  -34.9228 H   0  0  0  0  0  0  0  0  0  0  0  0
  -23.4429  -22.4094  -38.0851 H   0  0  0  0  0  0  0  0  0  0  0  0
  -23.5696  -24.0342  -38.7771 H   0  0  0  0  0  0  0  0  0  0  0  0
  -23.1915  -22.6555  -39.8247 H   0  0  0  0  0  0  0  0  0  0  0  0
   -6.1506  -38.1637  -33.3009 H   0  0  0  0  0  0  0  0  0  0  0  0
   -4.6010  -37.6558  -33.9925 H   0  0  0  0  0  0  0  0  0  0  0  0
   -4.7883  -37.7614  -32.2363 H   0  0  0  0  0  0  0  0  0  0  0  0
  -14.7400  -24.2972  -37.4047 H   0  0  0  0  0  0  0  0  0  0  0  0
  -14.3112  -25.6764  -38.4040 H   0  0  0  0  0  0  0  0  0  0  0  0
  -12.0891  -25.7464  -37.4057 H   0  0  0  0  0  0  0  0  0  0  0  0
  -12.4263  -24.4553  -36.2693 H   0  0  0  0  0  0  0  0  0  0  0  0
  -21.1454  -23.9500  -39.3828 H   0  0  0  0  0  0  0  0  0  0  0  0
  -21.0139  -22.3590  -38.6297 H   0  0  0  0  0  0  0  0  0  0  0  0
   -6.5292  -35.9220  -32.3824 H   0  0  0  0  0  0  0  0  0  0  0  0
   -6.2052  -35.7875  -34.1122 H   0  0  0  0  0  0  0  0  0  0  0  0
  -16.7466  -26.5094  -37.9329 H   0  0  0  0  0  0  0  0  0  0  0  0
  -16.5201  -25.1939  -39.0821 H   0  0  0  0  0  0  0  0  0  0  0  0
  -11.1917  -25.8414  -34.4814 H   0  0  0  0  0  0  0  0  0  0  0  0
  -10.2371  -25.0527  -35.7172 H   0  0  0  0  0  0  0  0  0  0  0  0
  -21.9177  -23.4624  -36.4661 H   0  0  0  0  0  0  0  0  0  0  0  0
  -21.6430  -25.0128  -37.2379 H   0  0  0  0  0  0  0  0  0  0  0  0
  -17.0706  -23.5452  -37.2107 H   0  0  0  0  0  0  0  0  0  0  0  0
  -17.2970  -24.9060  -36.1280 H   0  0  0  0  0  0  0  0  0  0  0  0
   -9.8775  -27.1678  -36.8892 H   0  0  0  0  0  0  0  0  0  0  0  0
  -11.1056  -27.9661  -35.9294 H   0  0  0  0  0  0  0  0  0  0  0  0
  -19.7879  -24.2268  -35.7156 H   0  0  0  0  0  0  0  0  0  0  0  0
  -19.5175  -22.8550  -36.7674 H   0  0  0  0  0  0  0  0  0  0  0  0
  -18.9440  -24.4107  -38.6455 H   0  0  0  0  0  0  0  0  0  0  0  0
  -19.1306  -25.7762  -37.5673 H   0  0  0  0  0  0  0  0  0  0  0  0
   -9.6794  -27.8963  -33.9270 H   0  0  0  0  0  0  0  0  0  0  0  0
   -8.5330  -26.8543  -34.7499 H   0  0  0  0  0  0  0  0  0  0  0  0
   -9.0775  -29.8063  -35.3035 H   0  0  0  0  0  0  0  0  0  0  0  0
   -8.2233  -28.7861  -36.4649 H   0  0  0  0  0  0  0  0  0  0  0  0
   -7.4023  -29.4993  -33.6134 H   0  0  0  0  0  0  0  0  0  0  0  0
   -6.6825  -28.1267  -34.4593 H   0  0  0  0  0  0  0  0  0  0  0  0
   -5.8856  -29.6030  -36.2747 H   0  0  0  0  0  0  0  0  0  0  0  0
   -6.7377  -30.9799  -35.5724 H   0  0  0  0  0  0  0  0  0  0  0  0
   -4.2127  -35.2695  -31.8390 H   0  0  0  0  0  0  0  0  0  0  0  0
   -3.7973  -35.1738  -33.5596 H   0  0  0  0  0  0  0  0  0  0  0  0
   -4.7204  -29.5528  -33.8395 H   0  0  0  0  0  0  0  0  0  0  0  0
   -4.1241  -30.6361  -35.1109 H   0  0  0  0  0  0  0  0  0  0  0  0
   -5.6545  -33.3678  -32.1080 H   0  0  0  0  0  0  0  0  0  0  0  0
   -5.8509  -31.4083  -32.8237 H   0  0  0  0  0  0  0  0  0  0  0  0
  1  2  2  0  0  0  0
  1  6  1  0  0  0  0
  2  7  1  0  0  0  0
  3 23  1  0  0  0  0
  3 24  1  0  0  0  0
  3 25  2  0  0  0  0
  4  8  1  0  0  0  0
  5  9  1  0  0  0  0
  6 10  1  0  0  0  0
  7 11  1  0  0  0  0
  8 12  1  0  0  0  0
  9 21  1  0  0  0  0
 10 13  1  0  0  0  0
 11 14  1  0  0  0  0
 12 15  1  0  0  0  0
 13 16  1  0  0  0  0
 14 17  1  0  0  0  0
 15 16  1  0  0  0  0
 17 18  1  0  0  0  0
 18 19  1  0  0  0  0
 19 20  1  0  0  0  0
 20 22  1  0  0  0  0
 21 23  1  0  0  0  0
 22 24  1  0  0  0  0
  1 26  1  0  0  0  0
  2 27  1  0  0  0  0
  4 28  1  0  0  0  0
  4 29  1  0  0  0  0
  4 30  1  0  0  0  0
  5 31  1  0  0  0  0
  5 32  1  0  0  0  0
  5 33  1  0  0  0  0
  6 34  1  0  0  0  0
  6 35  1  0  0  0  0
  7 36  1  0  0  0  0
  7 37  1  0  0  0  0
  8 38  1  0  0  0  0
  8 39  1  0  0  0  0
  9 40  1  0  0  0  0
  9 41  1  0  0  0  0
 10 42  1  0  0  0  0
 10 43  1  0  0  0  0
 11 44  1  0  0  0  0
 11 45  1  0  0  0  0
 12 46  1  0  0  0  0
 12 47  1  0  0  0  0
 13 48  1  0  0  0  0
 13 49  1  0  0  0  0
 14 50  1  0  0  0  0
 14 51  1  0  0  0  0
 15 52  1  0  0  0  0
 15 53  1  0  0  0  0
 16 54  1  0  0  0  0
 16 55  1  0  0  0  0
 17 56  1  0  0  0  0
 17 57  1  0  0  0  0
 18 58  1  0  0  0  0
 18 59  1  0  0  0  0
 19 60  1  0  0  0  0
 19 61  1  0  0  0  0
 20 62  1  0  0  0  0
 20 63  1  0  0  0  0
 21 64  1  0  0  0  0
 21 65  1  0  0  0  0
 22 66  1  0  0  0  0
 22 67  1  0  0  0  0
 23 68  1  0  0  0  0
 24 69  1  0  0  0  0
M  END
> <Name>
IA_106.cdx

> <SourceTag>
IA_106

> <Gold.Version>
5.2

> <Gold.Id.Protein>
6HGV|6HGV_protein|mol2

> <Gold.Goldscore.Fitness>
76.7415

> <Gold.Goldscore.Internal.Vdw>
-7.8414

> <Gold.Goldscore.Internal.Torsion>
-8.7257

> <Gold.Goldscore.External.Vdw>
58.4558

> <Gold.Goldscore.Internal.HBond>
0.0000

> <Gold.Goldscore.External.HBond>
0.4520

> <Gold.Goldscore.Internal.Correction>
-12.4799

> <Gold.Goldscore.Hbonds>
donor molecule, donor type, donor heavy atom, donor atom, acceptor molecule, acceptor atom, score
      P1  H  1957  4531       L1    25  0.23

> <Gold.Goldscore.Internal.Vdw.Weighted>
-7.8414

> <Gold.Goldscore.Internal.Torsion.Weighted>
-8.7257

> <Gold.Goldscore.External.Vdw.Weighted>
80.3767

> <Gold.Goldscore.Internal.HBond.Weighted>
0.0000

> <Gold.Goldscore.External.HBond.Weighted>
0.4520

> <Gold.Goldscore.Internal.Correction.Weighted>
-12.4799

> <Gold.Protein.RotatedTorsions>
[ 3781 1176 1175 1172 ] final -169.94 input   60.00 | X-H torsion
[ 3847 1247 1246 1244 ] final   46.38 input   60.00 | X-H torsion
[ 4507 1931 1930 1928 ] final  108.35 input   60.00 | X-H torsion
[ 3677 1070 1069 1066 ] final -123.01 input   60.00 | X-H torsion
[ 3525  925  924  922 ] final   31.05 input   59.99 | X-H torsion
[ 4531 1957 1955 1953 ] final   29.84 input   60.00 | X-H torsion

> <Gold.Protein.ActiveResidues>
 PHE267  PRO268  MET310  ASP335  TRP336  MET339  TYR343  THR360  PRO361  ILE363
 PRO371  SER374  ILE375  ASN378  PHE381  TYR383  GLN384  PHE387  LEU408  LEU417
 MET419  LEU428  TYR466  MET469  ASN472  ASP496  VAL498  LEU499  MET503  HIS524
 TRP525

> <Gold.Protein.RotatedAtoms>
   -3.2311  -29.6765  -30.7919 H   0  0  0  0  0  0  0  0  0  0  0  0  # atno 3525 bound_to 925
  -11.4263  -23.5462  -31.4502 H   0  0  0  0  0  0  0  0  0  0  0  0  # atno 3677 bound_to 1070
   -9.2459  -36.4490  -33.0058 H   0  0  0  0  0  0  0  0  0  0  0  0  # atno 3781 bound_to 1176
  -15.0341  -28.9606  -37.2273 H   0  0  0  0  0  0  0  0  0  0  0  0  # atno 3847 bound_to 1247
  -12.4315  -24.0429  -39.2015 H   0  0  0  0  0  0  0  0  0  0  0  0  # atno 4507 bound_to 1931
   -3.0765  -32.9287  -36.6547 H   0  0  0  0  0  0  0  0  0  0  0  0  # atno 4531 bound_to 1957
  -10.5033  -37.4184  -32.6492 LP  0  0  0  0  0  0  0  0  0  0  0  0  # atno 5205 bound_to 1176
  -10.3670  -36.7687  -34.1411 LP  0  0  0  0  0  0  0  0  0  0  0  0  # atno 5206 bound_to 1176
  -16.0203  -27.6704  -37.3311 LP  0  0  0  0  0  0  0  0  0  0  0  0  # atno 5215 bound_to 1247
  -14.5110  -27.5999  -37.9504 LP  0  0  0  0  0  0  0  0  0  0  0  0  # atno 5216 bound_to 1247
  -13.3785  -25.3661  -39.2242 LP  0  0  0  0  0  0  0  0  0  0  0  0  # atno 5217 bound_to 1931
  -13.3893  -24.3289  -40.4855 LP  0  0  0  0  0  0  0  0  0  0  0  0  # atno 5218 bound_to 1931
  -11.6202  -22.1837  -30.5819 LP  0  0  0  0  0  0  0  0  0  0  0  0  # atno 5224 bound_to 1070
  -12.8112  -23.2998  -30.6320 LP  0  0  0  0  0  0  0  0  0  0  0  0  # atno 5225 bound_to 1070

$$$$
IA_106.cdx|SeH_inactivess_minimized|sdf|8|dock8
  -GOLD-   4172118433D 1   1.00000     0.00000

 69 68  0  0  0  0  0  0  0  0  1 V2000
   -8.3975  -27.4969  -34.6014 C   0  0  0  0  0  0  0  0  0  0  0  0
   -9.1561  -26.3988  -34.4694 C   0  0  0  0  0  0  0  0  0  0  0  0
  -20.6211  -25.1729  -36.7880 C   0  0  0  0  0  0  0  0  0  0  0  0
   -3.8710  -33.3306  -32.1024 C   0  0  0  0  0  0  0  0  0  0  0  0
  -24.3359  -24.5259  -34.3118 C   0  0  0  0  0  0  0  0  0  0  0  0
   -8.9364  -28.8957  -34.5119 C   0  0  0  0  0  0  0  0  0  0  0  0
  -10.6352  -26.4311  -34.2162 C   0  0  0  0  0  0  0  0  0  0  0  0
   -4.1576  -33.7336  -33.5404 C   0  0  0  0  0  0  0  0  0  0  0  0
  -23.0178  -24.5688  -35.0718 C   0  0  0  0  0  0  0  0  0  0  0  0
   -8.0003  -29.9329  -35.1423 C   0  0  0  0  0  0  0  0  0  0  0  0
  -11.4569  -26.0222  -35.4434 C   0  0  0  0  0  0  0  0  0  0  0  0
   -3.6796  -32.6660  -34.5254 C   0  0  0  0  0  0  0  0  0  0  0  0
   -6.6409  -30.0218  -34.4408 C   0  0  0  0  0  0  0  0  0  0  0  0
  -12.9470  -25.7685  -35.1829 C   0  0  0  0  0  0  0  0  0  0  0  0
   -4.4002  -31.3242  -34.3615 C   0  0  0  0  0  0  0  0  0  0  0  0
   -5.8793  -31.3115  -34.7639 C   0  0  0  0  0  0  0  0  0  0  0  0
  -13.8149  -25.5590  -36.4273 C   0  0  0  0  0  0  0  0  0  0  0  0
  -15.3163  -25.6364  -36.1430 C   0  0  0  0  0  0  0  0  0  0  0  0
  -16.1310  -25.1008  -37.3228 C   0  0  0  0  0  0  0  0  0  0  0  0
  -17.5892  -25.5623  -37.2492 C   0  0  0  0  0  0  0  0  0  0  0  0
  -22.8870  -25.8038  -35.9548 C   0  0  0  0  0  0  0  0  0  0  0  0
  -18.5284  -24.6514  -38.0341 C   0  0  0  0  0  0  0  0  0  0  0  0
  -21.9190  -25.6243  -37.0120 N   0  0  0  0  0  0  0  0  0  0  0  0
  -19.8960  -25.0896  -37.9784 N   0  0  0  0  0  0  0  0  0  0  0  0
  -20.1659  -24.8832  -35.6823 O   0  0  0  0  0  0  0  0  0  0  0  0
   -7.3321  -27.3869  -34.7856 H   0  0  0  0  0  0  0  0  0  0  0  0
   -8.6948  -25.4175  -34.5493 H   0  0  0  0  0  0  0  0  0  0  0  0
   -3.9677  -34.1897  -31.4323 H   0  0  0  0  0  0  0  0  0  0  0  0
   -4.5800  -32.5640  -31.7744 H   0  0  0  0  0  0  0  0  0  0  0  0
   -2.8595  -32.9250  -32.0002 H   0  0  0  0  0  0  0  0  0  0  0  0
  -24.3553  -23.6885  -33.6071 H   0  0  0  0  0  0  0  0  0  0  0  0
  -25.1693  -24.3997  -35.0103 H   0  0  0  0  0  0  0  0  0  0  0  0
  -24.5043  -25.4515  -33.7525 H   0  0  0  0  0  0  0  0  0  0  0  0
   -9.0988  -29.1698  -33.4619 H   0  0  0  0  0  0  0  0  0  0  0  0
   -9.9193  -28.9306  -34.9962 H   0  0  0  0  0  0  0  0  0  0  0  0
  -10.9554  -27.4168  -33.8603 H   0  0  0  0  0  0  0  0  0  0  0  0
  -10.8527  -25.7280  -33.4028 H   0  0  0  0  0  0  0  0  0  0  0  0
   -3.6607  -34.6887  -33.7399 H   0  0  0  0  0  0  0  0  0  0  0  0
   -5.2350  -33.8944  -33.6613 H   0  0  0  0  0  0  0  0  0  0  0  0
  -22.1954  -24.5629  -34.3471 H   0  0  0  0  0  0  0  0  0  0  0  0
  -22.9222  -23.6604  -35.6784 H   0  0  0  0  0  0  0  0  0  0  0  0
   -7.8379  -29.6577  -36.1919 H   0  0  0  0  0  0  0  0  0  0  0  0
   -8.4944  -30.9117  -35.1435 H   0  0  0  0  0  0  0  0  0  0  0  0
  -11.3732  -26.8065  -36.2072 H   0  0  0  0  0  0  0  0  0  0  0  0
  -11.0051  -25.1266  -35.8863 H   0  0  0  0  0  0  0  0  0  0  0  0
   -2.6062  -32.4960  -34.3737 H   0  0  0  0  0  0  0  0  0  0  0  0
   -3.7889  -33.0295  -35.5533 H   0  0  0  0  0  0  0  0  0  0  0  0
   -6.7587  -29.9247  -33.3567 H   0  0  0  0  0  0  0  0  0  0  0  0
   -6.0224  -29.1733  -34.7596 H   0  0  0  0  0  0  0  0  0  0  0  0
  -13.0596  -24.8944  -34.5298 H   0  0  0  0  0  0  0  0  0  0  0  0
  -13.3447  -26.6201  -34.6163 H   0  0  0  0  0  0  0  0  0  0  0  0
   -3.8602  -30.5653  -34.9399 H   0  0  0  0  0  0  0  0  0  0  0  0
   -4.3269  -31.0087  -33.3130 H   0  0  0  0  0  0  0  0  0  0  0  0
   -6.3788  -32.1535  -34.2681 H   0  0  0  0  0  0  0  0  0  0  0  0
   -5.9634  -31.5059  -35.8397 H   0  0  0  0  0  0  0  0  0  0  0  0
  -13.5456  -26.2850  -37.2027 H   0  0  0  0  0  0  0  0  0  0  0  0
  -13.5796  -24.5693  -36.8389 H   0  0  0  0  0  0  0  0  0  0  0  0
  -15.6084  -26.6745  -35.9486 H   0  0  0  0  0  0  0  0  0  0  0  0
  -15.5510  -25.0568  -35.2422 H   0  0  0  0  0  0  0  0  0  0  0  0
  -15.6843  -25.4464  -38.2631 H   0  0  0  0  0  0  0  0  0  0  0  0
  -16.0873  -24.0053  -37.3259 H   0  0  0  0  0  0  0  0  0  0  0  0
  -17.9074  -25.6088  -36.2005 H   0  0  0  0  0  0  0  0  0  0  0  0
  -17.6665  -26.5778  -37.6559 H   0  0  0  0  0  0  0  0  0  0  0  0
  -22.5531  -26.6578  -35.3571 H   0  0  0  0  0  0  0  0  0  0  0  0
  -23.8440  -26.0649  -36.4173 H   0  0  0  0  0  0  0  0  0  0  0  0
  -18.2415  -24.6363  -39.0901 H   0  0  0  0  0  0  0  0  0  0  0  0
  -18.4901  -23.6256  -37.6541 H   0  0  0  0  0  0  0  0  0  0  0  0
  -22.1985  -25.8378  -37.9644 H   0  0  0  0  0  0  0  0  0  0  0  0
  -20.3463  -25.3962  -38.8389 H   0  0  0  0  0  0  0  0  0  0  0  0
  1  2  2  0  0  0  0
  1  6  1  0  0  0  0
  2  7  1  0  0  0  0
  3 23  1  0  0  0  0
  3 24  1  0  0  0  0
  3 25  2  0  0  0  0
  4  8  1  0  0  0  0
  5  9  1  0  0  0  0
  6 10  1  0  0  0  0
  7 11  1  0  0  0  0
  8 12  1  0  0  0  0
  9 21  1  0  0  0  0
 10 13  1  0  0  0  0
 11 14  1  0  0  0  0
 12 15  1  0  0  0  0
 13 16  1  0  0  0  0
 14 17  1  0  0  0  0
 15 16  1  0  0  0  0
 17 18  1  0  0  0  0
 18 19  1  0  0  0  0
 19 20  1  0  0  0  0
 20 22  1  0  0  0  0
 21 23  1  0  0  0  0
 22 24  1  0  0  0  0
  1 26  1  0  0  0  0
  2 27  1  0  0  0  0
  4 28  1  0  0  0  0
  4 29  1  0  0  0  0
  4 30  1  0  0  0  0
  5 31  1  0  0  0  0
  5 32  1  0  0  0  0
  5 33  1  0  0  0  0
  6 34  1  0  0  0  0
  6 35  1  0  0  0  0
  7 36  1  0  0  0  0
  7 37  1  0  0  0  0
  8 38  1  0  0  0  0
  8 39  1  0  0  0  0
  9 40  1  0  0  0  0
  9 41  1  0  0  0  0
 10 42  1  0  0  0  0
 10 43  1  0  0  0  0
 11 44  1  0  0  0  0
 11 45  1  0  0  0  0
 12 46  1  0  0  0  0
 12 47  1  0  0  0  0
 13 48  1  0  0  0  0
 13 49  1  0  0  0  0
 14 50  1  0  0  0  0
 14 51  1  0  0  0  0
 15 52  1  0  0  0  0
 15 53  1  0  0  0  0
 16 54  1  0  0  0  0
 16 55  1  0  0  0  0
 17 56  1  0  0  0  0
 17 57  1  0  0  0  0
 18 58  1  0  0  0  0
 18 59  1  0  0  0  0
 19 60  1  0  0  0  0
 19 61  1  0  0  0  0
 20 62  1  0  0  0  0
 20 63  1  0  0  0  0
 21 64  1  0  0  0  0
 21 65  1  0  0  0  0
 22 66  1  0  0  0  0
 22 67  1  0  0  0  0
 23 68  1  0  0  0  0
 24 69  1  0  0  0  0
M  END
> <Name>
IA_106.cdx

> <SourceTag>
IA_106

> <Gold.Version>
5.2

> <Gold.Id.Protein>
6HGV|6HGV_protein|mol2

> <Gold.Goldscore.Fitness>
76.4862

> <Gold.Goldscore.Internal.Vdw>
-11.8265

> <Gold.Goldscore.Internal.Torsion>
-8.0114

> <Gold.Goldscore.External.Vdw>
61.2199

> <Gold.Goldscore.Internal.HBond>
0.0000

> <Gold.Goldscore.External.HBond>
0.0000

> <Gold.Goldscore.Internal.Correction>
-12.1469

> <Gold.Goldscore.Internal.Vdw.Weighted>
-11.8265

> <Gold.Goldscore.Internal.Torsion.Weighted>
-8.0114

> <Gold.Goldscore.External.Vdw.Weighted>
84.1773

> <Gold.Goldscore.Internal.HBond.Weighted>
0.0000

> <Gold.Goldscore.External.HBond.Weighted>
0.0000

> <Gold.Goldscore.Internal.Correction.Weighted>
-12.1469

> <Gold.Protein.RotatedTorsions>
[ 3781 1176 1175 1172 ] final   76.02 input   60.00 | X-H torsion
[ 3847 1247 1246 1244 ] final   41.04 input   60.00 | X-H torsion
[ 4507 1931 1930 1928 ] final  -48.42 input   60.00 | X-H torsion
[ 3677 1070 1069 1066 ] final -117.38 input   60.00 | X-H torsion
[ 3525  925  924  922 ] final   51.83 input   59.99 | X-H torsion
[ 4531 1957 1955 1953 ] final -120.51 input   60.00 | X-H torsion

> <Gold.Protein.ActiveResidues>
 PHE267  PRO268  MET310  ASP335  TRP336  MET339  TYR343  THR360  PRO361  ILE363
 PRO371  SER374  ILE375  ASN378  PHE381  TYR383  GLN384  PHE387  LEU408  LEU417
 MET419  LEU428  TYR466  MET469  ASN472  ASP496  VAL498  LEU499  MET503  HIS524
 TRP525

> <Gold.Protein.RotatedAtoms>
   -2.9274  -29.8018  -30.8698 H   0  0  0  0  0  0  0  0  0  0  0  0  # atno 3525 bound_to 925
  -11.4958  -23.6064  -31.4503 H   0  0  0  0  0  0  0  0  0  0  0  0  # atno 3677 bound_to 1070
  -10.4293  -37.3943  -32.5898 H   0  0  0  0  0  0  0  0  0  0  0  0  # atno 3781 bound_to 1176
  -15.1154  -28.9605  -37.1954 H   0  0  0  0  0  0  0  0  0  0  0  0  # atno 3847 bound_to 1247
  -13.6423  -25.3059  -39.7514 H   0  0  0  0  0  0  0  0  0  0  0  0  # atno 4507 bound_to 1931
   -1.2993  -32.8554  -36.9913 H   0  0  0  0  0  0  0  0  0  0  0  0  # atno 4531 bound_to 1957
  -10.4408  -36.8276  -34.1152 LP  0  0  0  0  0  0  0  0  0  0  0  0  # atno 5205 bound_to 1176
   -9.2378  -36.4075  -33.0941 LP  0  0  0  0  0  0  0  0  0  0  0  0  # atno 5206 bound_to 1176
  -15.9887  -27.5987  -37.3709 LP  0  0  0  0  0  0  0  0  0  0  0  0  # atno 5215 bound_to 1247
  -14.4608  -27.6717  -37.9427 LP  0  0  0  0  0  0  0  0  0  0  0  0  # atno 5216 bound_to 1247
  -12.9967  -23.9194  -40.3073 LP  0  0  0  0  0  0  0  0  0  0  0  0  # atno 5217 bound_to 1931
  -12.5516  -24.5036  -38.8488 LP  0  0  0  0  0  0  0  0  0  0  0  0  # atno 5218 bound_to 1931
  -11.5432  -22.2018  -30.6300 LP  0  0  0  0  0  0  0  0  0  0  0  0  # atno 5224 bound_to 1070
  -12.8182  -23.2211  -30.5837 LP  0  0  0  0  0  0  0  0  0  0  0  0  # atno 5225 bound_to 1070

$$$$
IA_106.cdx|SeH_inactivess_minimized|sdf|8|dock3
  -GOLD-   4172118403D 1   1.00000     0.00000

 69 68  0  0  0  0  0  0  0  0  1 V2000
   -8.2640  -29.1846  -35.7600 C   0  0  0  0  0  0  0  0  0  0  0  0
   -9.2147  -28.2403  -35.8175 C   0  0  0  0  0  0  0  0  0  0  0  0
  -20.2996  -25.0804  -36.1837 C   0  0  0  0  0  0  0  0  0  0  0  0
   -5.1582  -36.6610  -32.4832 C   0  0  0  0  0  0  0  0  0  0  0  0
  -24.8613  -24.0384  -35.1273 C   0  0  0  0  0  0  0  0  0  0  0  0
   -7.1844  -29.2152  -34.7165 C   0  0  0  0  0  0  0  0  0  0  0  0
   -9.3178  -27.0989  -34.8483 C   0  0  0  0  0  0  0  0  0  0  0  0
   -5.5192  -35.3121  -33.0853 C   0  0  0  0  0  0  0  0  0  0  0  0
  -23.3715  -24.0334  -34.8159 C   0  0  0  0  0  0  0  0  0  0  0  0
   -6.6353  -30.6255  -34.4732 C   0  0  0  0  0  0  0  0  0  0  0  0
  -10.3992  -26.0853  -35.2374 C   0  0  0  0  0  0  0  0  0  0  0  0
   -4.2797  -34.4384  -33.2817 C   0  0  0  0  0  0  0  0  0  0  0  0
   -5.5041  -30.6609  -33.4401 C   0  0  0  0  0  0  0  0  0  0  0  0
  -11.8452  -26.5693  -35.0714 C   0  0  0  0  0  0  0  0  0  0  0  0
   -4.5985  -33.0546  -33.8562 C   0  0  0  0  0  0  0  0  0  0  0  0
   -5.2428  -32.0632  -32.8806 C   0  0  0  0  0  0  0  0  0  0  0  0
  -12.9254  -25.6558  -35.6581 C   0  0  0  0  0  0  0  0  0  0  0  0
  -14.3351  -26.2439  -35.5689 C   0  0  0  0  0  0  0  0  0  0  0  0
  -15.3503  -25.3599  -36.2972 C   0  0  0  0  0  0  0  0  0  0  0  0
  -16.7597  -25.9543  -36.2265 C   0  0  0  0  0  0  0  0  0  0  0  0
  -22.6506  -25.2580  -35.3665 C   0  0  0  0  0  0  0  0  0  0  0  0
  -17.8411  -24.9288  -36.5534 C   0  0  0  0  0  0  0  0  0  0  0  0
  -21.2236  -25.2005  -35.1492 N   0  0  0  0  0  0  0  0  0  0  0  0
  -18.9905  -25.0478  -35.6989 N   0  0  0  0  0  0  0  0  0  0  0  0
  -20.5947  -25.0108  -37.3761 O   0  0  0  0  0  0  0  0  0  0  0  0
   -8.2606  -29.9801  -36.5004 H   0  0  0  0  0  0  0  0  0  0  0  0
   -9.9663  -28.2854  -36.6019 H   0  0  0  0  0  0  0  0  0  0  0  0
   -4.6318  -36.5331  -31.5329 H   0  0  0  0  0  0  0  0  0  0  0  0
   -4.5025  -37.2162  -33.1613 H   0  0  0  0  0  0  0  0  0  0  0  0
   -6.0529  -37.2654  -32.3037 H   0  0  0  0  0  0  0  0  0  0  0  0
  -25.0373  -24.1636  -36.2005 H   0  0  0  0  0  0  0  0  0  0  0  0
  -25.3524  -24.8657  -34.6051 H   0  0  0  0  0  0  0  0  0  0  0  0
  -25.3393  -23.1079  -34.8057 H   0  0  0  0  0  0  0  0  0  0  0  0
   -6.3516  -28.5674  -35.0177 H   0  0  0  0  0  0  0  0  0  0  0  0
   -7.5792  -28.7977  -33.7829 H   0  0  0  0  0  0  0  0  0  0  0  0
   -9.4895  -27.4593  -33.8277 H   0  0  0  0  0  0  0  0  0  0  0  0
   -8.3495  -26.5839  -34.8306 H   0  0  0  0  0  0  0  0  0  0  0  0
   -6.0237  -35.4819  -34.0423 H   0  0  0  0  0  0  0  0  0  0  0  0
   -6.2317  -34.8028  -32.4263 H   0  0  0  0  0  0  0  0  0  0  0  0
  -23.2411  -24.0054  -33.7279 H   0  0  0  0  0  0  0  0  0  0  0  0
  -22.9220  -23.1186  -35.2202 H   0  0  0  0  0  0  0  0  0  0  0  0
   -6.2552  -31.0163  -35.4253 H   0  0  0  0  0  0  0  0  0  0  0  0
   -7.4556  -31.2841  -34.1644 H   0  0  0  0  0  0  0  0  0  0  0  0
  -10.2556  -25.7943  -36.2864 H   0  0  0  0  0  0  0  0  0  0  0  0
  -10.2501  -25.1702  -34.6521 H   0  0  0  0  0  0  0  0  0  0  0  0
   -3.7852  -34.2981  -32.3122 H   0  0  0  0  0  0  0  0  0  0  0  0
   -3.5556  -34.9547  -33.9219 H   0  0  0  0  0  0  0  0  0  0  0  0
   -5.7104  -29.9682  -32.6177 H   0  0  0  0  0  0  0  0  0  0  0  0
   -4.5803  -30.3072  -33.9150 H   0  0  0  0  0  0  0  0  0  0  0  0
  -12.0593  -26.7206  -34.0062 H   0  0  0  0  0  0  0  0  0  0  0  0
  -11.9300  -27.5588  -35.5383 H   0  0  0  0  0  0  0  0  0  0  0  0
   -5.2502  -33.1809  -34.7287 H   0  0  0  0  0  0  0  0  0  0  0  0
   -3.6717  -32.6076  -34.2378 H   0  0  0  0  0  0  0  0  0  0  0  0
   -4.5970  -31.9793  -31.9973 H   0  0  0  0  0  0  0  0  0  0  0  0
   -6.1917  -32.4765  -32.5185 H   0  0  0  0  0  0  0  0  0  0  0  0
  -12.6896  -25.4124  -36.7002 H   0  0  0  0  0  0  0  0  0  0  0  0
  -12.8986  -24.7066  -35.1079 H   0  0  0  0  0  0  0  0  0  0  0  0
  -14.3520  -27.2465  -36.0107 H   0  0  0  0  0  0  0  0  0  0  0  0
  -14.6258  -26.3457  -34.5165 H   0  0  0  0  0  0  0  0  0  0  0  0
  -15.0520  -25.2479  -37.3467 H   0  0  0  0  0  0  0  0  0  0  0  0
  -15.3460  -24.3588  -35.8499 H   0  0  0  0  0  0  0  0  0  0  0  0
  -16.9331  -26.3710  -35.2268 H   0  0  0  0  0  0  0  0  0  0  0  0
  -16.8371  -26.7833  -36.9402 H   0  0  0  0  0  0  0  0  0  0  0  0
  -23.0140  -26.1621  -34.8678 H   0  0  0  0  0  0  0  0  0  0  0  0
  -22.8217  -25.3698  -36.4418 H   0  0  0  0  0  0  0  0  0  0  0  0
  -18.1921  -25.0675  -37.5806 H   0  0  0  0  0  0  0  0  0  0  0  0
  -17.4573  -23.9082  -36.4575 H   0  0  0  0  0  0  0  0  0  0  0  0
  -20.8777  -25.2500  -34.1959 H   0  0  0  0  0  0  0  0  0  0  0  0
  -18.8500  -25.0650  -34.6904 H   0  0  0  0  0  0  0  0  0  0  0  0
  1  2  2  0  0  0  0
  1  6  1  0  0  0  0
  2  7  1  0  0  0  0
  3 23  1  0  0  0  0
  3 24  1  0  0  0  0
  3 25  2  0  0  0  0
  4  8  1  0  0  0  0
  5  9  1  0  0  0  0
  6 10  1  0  0  0  0
  7 11  1  0  0  0  0
  8 12  1  0  0  0  0
  9 21  1  0  0  0  0
 10 13  1  0  0  0  0
 11 14  1  0  0  0  0
 12 15  1  0  0  0  0
 13 16  1  0  0  0  0
 14 17  1  0  0  0  0
 15 16  1  0  0  0  0
 17 18  1  0  0  0  0
 18 19  1  0  0  0  0
 19 20  1  0  0  0  0
 20 22  1  0  0  0  0
 21 23  1  0  0  0  0
 22 24  1  0  0  0  0
  1 26  1  0  0  0  0
  2 27  1  0  0  0  0
  4 28  1  0  0  0  0
  4 29  1  0  0  0  0
  4 30  1  0  0  0  0
  5 31  1  0  0  0  0
  5 32  1  0  0  0  0
  5 33  1  0  0  0  0
  6 34  1  0  0  0  0
  6 35  1  0  0  0  0
  7 36  1  0  0  0  0
  7 37  1  0  0  0  0
  8 38  1  0  0  0  0
  8 39  1  0  0  0  0
  9 40  1  0  0  0  0
  9 41  1  0  0  0  0
 10 42  1  0  0  0  0
 10 43  1  0  0  0  0
 11 44  1  0  0  0  0
 11 45  1  0  0  0  0
 12 46  1  0  0  0  0
 12 47  1  0  0  0  0
 13 48  1  0  0  0  0
 13 49  1  0  0  0  0
 14 50  1  0  0  0  0
 14 51  1  0  0  0  0
 15 52  1  0  0  0  0
 15 53  1  0  0  0  0
 16 54  1  0  0  0  0
 16 55  1  0  0  0  0
 17 56  1  0  0  0  0
 17 57  1  0  0  0  0
 18 58  1  0  0  0  0
 18 59  1  0  0  0  0
 19 60  1  0  0  0  0
 19 61  1  0  0  0  0
 20 62  1  0  0  0  0
 20 63  1  0  0  0  0
 21 64  1  0  0  0  0
 21 65  1  0  0  0  0
 22 66  1  0  0  0  0
 22 67  1  0  0  0  0
 23 68  1  0  0  0  0
 24 69  1  0  0  0  0
M  END
> <Name>
IA_106.cdx

> <SourceTag>
IA_106

> <Gold.Version>
5.2

> <Gold.Id.Protein>
6HGV|6HGV_protein|mol2

> <Gold.Goldscore.Fitness>
76.0413

> <Gold.Goldscore.Internal.Vdw>
-9.5421

> <Gold.Goldscore.Internal.Torsion>
-8.5555

> <Gold.Goldscore.External.Vdw>
57.7115

> <Gold.Goldscore.Internal.HBond>
0.0000

> <Gold.Goldscore.External.HBond>
2.3055

> <Gold.Goldscore.Internal.Correction>
-12.4799

> <Gold.Goldscore.Hbonds>
donor molecule, donor type, donor heavy atom, donor atom, acceptor molecule, acceptor atom, score
      L1  H    23    68       P1  2185  0.33
      L1  H    24    69       P1  2185  0.06

> <Gold.Goldscore.Internal.Vdw.Weighted>
-9.5421

> <Gold.Goldscore.Internal.Torsion.Weighted>
-8.5555

> <Gold.Goldscore.External.Vdw.Weighted>
79.3533

> <Gold.Goldscore.Internal.HBond.Weighted>
0.0000

> <Gold.Goldscore.External.HBond.Weighted>
2.3055

> <Gold.Goldscore.Internal.Correction.Weighted>
-12.4799

> <Gold.Protein.RotatedTorsions>
[ 3781 1176 1175 1172 ] final -130.48 input   60.00 | X-H torsion
[ 3847 1247 1246 1244 ] final   27.84 input   60.00 | X-H torsion
[ 4507 1931 1930 1928 ] final  -17.13 input   60.00 | X-H torsion
[ 3677 1070 1069 1066 ] final -101.54 input   60.00 | X-H torsion
[ 3525  925  924  922 ] final   38.25 input   59.99 | X-H torsion
[ 4531 1957 1955 1953 ] final    8.04 input   60.00 | X-H torsion

> <Gold.Protein.ActiveResidues>
 PHE267  PRO268  MET310  ASP335  TRP336  MET339  TYR343  THR360  PRO361  ILE363
 PRO371  SER374  ILE375  ASN378  PHE381  TYR383  GLN384  PHE387  LEU408  LEU417
 MET419  LEU428  TYR466  MET469  ASN472  ASP496  VAL498  LEU499  MET503  HIS524
 TRP525

> <Gold.Protein.RotatedAtoms>
   -3.1285  -29.7176  -30.8324 H   0  0  0  0  0  0  0  0  0  0  0  0  # atno 3525 bound_to 925
  -11.7127  -23.7434  -31.4217 H   0  0  0  0  0  0  0  0  0  0  0  0  # atno 3677 bound_to 1070
   -9.3764  -36.3103  -33.6085 H   0  0  0  0  0  0  0  0  0  0  0  0  # atno 3781 bound_to 1176
  -15.3172  -28.9277  -37.1288 H   0  0  0  0  0  0  0  0  0  0  0  0  # atno 3847 bound_to 1247
  -13.4256  -25.3741  -39.3004 H   0  0  0  0  0  0  0  0  0  0  0  0  # atno 4507 bound_to 1931
   -2.9372  -32.6037  -36.6755 H   0  0  0  0  0  0  0  0  0  0  0  0  # atno 4531 bound_to 1957
   -9.9842  -37.1759  -32.3719 LP  0  0  0  0  0  0  0  0  0  0  0  0  # atno 5205 bound_to 1176
  -10.7548  -37.1509  -33.8114 LP  0  0  0  0  0  0  0  0  0  0  0  0  # atno 5206 bound_to 1176
  -15.8815  -27.4408  -37.4734 LP  0  0  0  0  0  0  0  0  0  0  0  0  # atno 5215 bound_to 1247
  -14.3648  -27.8626  -37.9074 LP  0  0  0  0  0  0  0  0  0  0  0  0  # atno 5216 bound_to 1247
  -13.3356  -24.2569  -40.4802 LP  0  0  0  0  0  0  0  0  0  0  0  0  # atno 5217 bound_to 1931
  -12.4310  -24.0975  -39.1300 LP  0  0  0  0  0  0  0  0  0  0  0  0  # atno 5218 bound_to 1931
  -11.3500  -22.2937  -30.7774 LP  0  0  0  0  0  0  0  0  0  0  0  0  # atno 5224 bound_to 1070
  -12.7931  -22.9912  -30.4651 LP  0  0  0  0  0  0  0  0  0  0  0  0  # atno 5225 bound_to 1070

$$$$
IA_106.cdx|SeH_inactivess_minimized|sdf|8|dock10
  -GOLD-   4172118443D 1   1.00000     0.00000

 69 68  0  0  0  0  0  0  0  0  1 V2000
  -12.2143  -25.3543  -36.6319 C   0  0  0  0  0  0  0  0  0  0  0  0
  -11.2218  -26.1656  -36.2375 C   0  0  0  0  0  0  0  0  0  0  0  0
   -4.3491  -34.1804  -33.1308 C   0  0  0  0  0  0  0  0  0  0  0  0
  -21.8486  -23.4154  -39.3470 C   0  0  0  0  0  0  0  0  0  0  0  0
   -6.5458  -37.5739  -30.5886 C   0  0  0  0  0  0  0  0  0  0  0  0
  -13.6630  -25.6016  -36.3231 C   0  0  0  0  0  0  0  0  0  0  0  0
  -11.4350  -27.4194  -35.4403 C   0  0  0  0  0  0  0  0  0  0  0  0
  -20.9524  -24.1104  -38.3340 C   0  0  0  0  0  0  0  0  0  0  0  0
   -6.3627  -36.4100  -31.5522 C   0  0  0  0  0  0  0  0  0  0  0  0
  -14.6069  -24.8847  -37.2951 C   0  0  0  0  0  0  0  0  0  0  0  0
  -10.2125  -27.8039  -34.6000 C   0  0  0  0  0  0  0  0  0  0  0  0
  -19.4748  -23.8307  -38.6109 C   0  0  0  0  0  0  0  0  0  0  0  0
  -16.0877  -25.1312  -36.9879 C   0  0  0  0  0  0  0  0  0  0  0  0
   -9.0741  -28.4868  -35.3686 C   0  0  0  0  0  0  0  0  0  0  0  0
  -18.5282  -24.6006  -37.6847 C   0  0  0  0  0  0  0  0  0  0  0  0
  -17.0321  -24.3598  -37.9157 C   0  0  0  0  0  0  0  0  0  0  0  0
   -8.0171  -29.1877  -34.5102 C   0  0  0  0  0  0  0  0  0  0  0  0
   -7.0191  -30.0125  -35.3255 C   0  0  0  0  0  0  0  0  0  0  0  0
   -5.9439  -30.6267  -34.4261 C   0  0  0  0  0  0  0  0  0  0  0  0
   -4.7866  -31.1980  -35.2502 C   0  0  0  0  0  0  0  0  0  0  0  0
   -4.9973  -36.4148  -32.2289 C   0  0  0  0  0  0  0  0  0  0  0  0
   -3.8782  -32.1061  -34.4269 C   0  0  0  0  0  0  0  0  0  0  0  0
   -4.9084  -35.4447  -33.2956 N   0  0  0  0  0  0  0  0  0  0  0  0
   -4.3894  -33.4448  -34.3170 N   0  0  0  0  0  0  0  0  0  0  0  0
   -3.8771  -33.7601  -32.0752 O   0  0  0  0  0  0  0  0  0  0  0  0
  -11.9748  -24.4630  -37.2058 H   0  0  0  0  0  0  0  0  0  0  0  0
  -10.1950  -25.9195  -36.4969 H   0  0  0  0  0  0  0  0  0  0  0  0
  -21.7030  -22.3318  -39.3145 H   0  0  0  0  0  0  0  0  0  0  0  0
  -22.9008  -23.6223  -39.1279 H   0  0  0  0  0  0  0  0  0  0  0  0
  -21.6379  -23.7619  -40.3636 H   0  0  0  0  0  0  0  0  0  0  0  0
   -7.5744  -37.6172  -30.2168 H   0  0  0  0  0  0  0  0  0  0  0  0
   -6.3290  -38.5198  -31.0952 H   0  0  0  0  0  0  0  0  0  0  0  0
   -5.8719  -37.4912  -29.7302 H   0  0  0  0  0  0  0  0  0  0  0  0
  -13.8779  -26.6769  -36.3627 H   0  0  0  0  0  0  0  0  0  0  0  0
  -13.8676  -25.2830  -35.2943 H   0  0  0  0  0  0  0  0  0  0  0  0
  -12.3207  -27.3368  -34.8002 H   0  0  0  0  0  0  0  0  0  0  0  0
  -11.6427  -28.2345  -36.1442 H   0  0  0  0  0  0  0  0  0  0  0  0
  -21.2264  -23.7646  -37.3317 H   0  0  0  0  0  0  0  0  0  0  0  0
  -21.1387  -25.1899  -38.3693 H   0  0  0  0  0  0  0  0  0  0  0  0
   -6.4786  -35.4729  -30.9955 H   0  0  0  0  0  0  0  0  0  0  0  0
   -7.1572  -36.4392  -32.3073 H   0  0  0  0  0  0  0  0  0  0  0  0
  -14.3932  -25.2427  -38.3100 H   0  0  0  0  0  0  0  0  0  0  0  0
  -14.3881  -23.8105  -37.2846 H   0  0  0  0  0  0  0  0  0  0  0  0
  -10.5307  -28.4770  -33.7930 H   0  0  0  0  0  0  0  0  0  0  0  0
   -9.8304  -26.9041  -34.1033 H   0  0  0  0  0  0  0  0  0  0  0  0
  -19.2455  -24.1169  -39.6452 H   0  0  0  0  0  0  0  0  0  0  0  0
  -19.2781  -22.7550  -38.5411 H   0  0  0  0  0  0  0  0  0  0  0  0
  -16.3121  -24.8843  -35.9451 H   0  0  0  0  0  0  0  0  0  0  0  0
  -16.2991  -26.2019  -37.1022 H   0  0  0  0  0  0  0  0  0  0  0  0
   -8.5709  -27.7498  -36.0063 H   0  0  0  0  0  0  0  0  0  0  0  0
   -9.5166  -29.2229  -36.0517 H   0  0  0  0  0  0  0  0  0  0  0  0
  -18.7424  -25.6717  -37.7793 H   0  0  0  0  0  0  0  0  0  0  0  0
  -18.7613  -24.3401  -36.6444 H   0  0  0  0  0  0  0  0  0  0  0  0
  -16.8353  -23.2853  -37.8104 H   0  0  0  0  0  0  0  0  0  0  0  0
  -16.7814  -24.6089  -38.9537 H   0  0  0  0  0  0  0  0  0  0  0  0
   -8.5001  -29.8241  -33.7603 H   0  0  0  0  0  0  0  0  0  0  0  0
   -7.4714  -28.4162  -33.9519 H   0  0  0  0  0  0  0  0  0  0  0  0
   -7.5419  -30.8152  -35.8574 H   0  0  0  0  0  0  0  0  0  0  0  0
   -6.5447  -29.3749  -36.0811 H   0  0  0  0  0  0  0  0  0  0  0  0
   -6.3877  -31.4232  -33.8163 H   0  0  0  0  0  0  0  0  0  0  0  0
   -5.5673  -29.8617  -33.7368 H   0  0  0  0  0  0  0  0  0  0  0  0
   -4.2002  -30.3763  -35.6792 H   0  0  0  0  0  0  0  0  0  0  0  0
   -5.1928  -31.7771  -36.0883 H   0  0  0  0  0  0  0  0  0  0  0  0
   -4.2183  -36.1635  -31.5022 H   0  0  0  0  0  0  0  0  0  0  0  0
   -4.7659  -37.3983  -32.6500 H   0  0  0  0  0  0  0  0  0  0  0  0
   -3.7818  -31.7174  -33.4084 H   0  0  0  0  0  0  0  0  0  0  0  0
   -2.8777  -32.1652  -34.8670 H   0  0  0  0  0  0  0  0  0  0  0  0
   -5.2712  -35.6970  -34.2096 H   0  0  0  0  0  0  0  0  0  0  0  0
   -4.7585  -33.8969  -35.1516 H   0  0  0  0  0  0  0  0  0  0  0  0
  1  2  2  0  0  0  0
  1  6  1  0  0  0  0
  2  7  1  0  0  0  0
  3 23  1  0  0  0  0
  3 24  1  0  0  0  0
  3 25  2  0  0  0  0
  4  8  1  0  0  0  0
  5  9  1  0  0  0  0
  6 10  1  0  0  0  0
  7 11  1  0  0  0  0
  8 12  1  0  0  0  0
  9 21  1  0  0  0  0
 10 13  1  0  0  0  0
 11 14  1  0  0  0  0
 12 15  1  0  0  0  0
 13 16  1  0  0  0  0
 14 17  1  0  0  0  0
 15 16  1  0  0  0  0
 17 18  1  0  0  0  0
 18 19  1  0  0  0  0
 19 20  1  0  0  0  0
 20 22  1  0  0  0  0
 21 23  1  0  0  0  0
 22 24  1  0  0  0  0
  1 26  1  0  0  0  0
  2 27  1  0  0  0  0
  4 28  1  0  0  0  0
  4 29  1  0  0  0  0
  4 30  1  0  0  0  0
  5 31  1  0  0  0  0
  5 32  1  0  0  0  0
  5 33  1  0  0  0  0
  6 34  1  0  0  0  0
  6 35  1  0  0  0  0
  7 36  1  0  0  0  0
  7 37  1  0  0  0  0
  8 38  1  0  0  0  0
  8 39  1  0  0  0  0
  9 40  1  0  0  0  0
  9 41  1  0  0  0  0
 10 42  1  0  0  0  0
 10 43  1  0  0  0  0
 11 44  1  0  0  0  0
 11 45  1  0  0  0  0
 12 46  1  0  0  0  0
 12 47  1  0  0  0  0
 13 48  1  0  0  0  0
 13 49  1  0  0  0  0
 14 50  1  0  0  0  0
 14 51  1  0  0  0  0
 15 52  1  0  0  0  0
 15 53  1  0  0  0  0
 16 54  1  0  0  0  0
 16 55  1  0  0  0  0
 17 56  1  0  0  0  0
 17 57  1  0  0  0  0
 18 58  1  0  0  0  0
 18 59  1  0  0  0  0
 19 60  1  0  0  0  0
 19 61  1  0  0  0  0
 20 62  1  0  0  0  0
 20 63  1  0  0  0  0
 21 64  1  0  0  0  0
 21 65  1  0  0  0  0
 22 66  1  0  0  0  0
 22 67  1  0  0  0  0
 23 68  1  0  0  0  0
 24 69  1  0  0  0  0
M  END
> <Name>
IA_106.cdx

> <SourceTag>
IA_106

> <Gold.Version>
5.2

> <Gold.Id.Protein>
6HGV|6HGV_protein|mol2

> <Gold.Goldscore.Fitness>
76.0140

> <Gold.Goldscore.Internal.Vdw>
-7.1503

> <Gold.Goldscore.Internal.Torsion>
-6.4342

> <Gold.Goldscore.External.Vdw>
56.3285

> <Gold.Goldscore.Internal.HBond>
0.0000

> <Gold.Goldscore.External.HBond>
0.0000

> <Gold.Goldscore.Internal.Correction>
-12.1469

> <Gold.Goldscore.Internal.Vdw.Weighted>
-7.1503

> <Gold.Goldscore.Internal.Torsion.Weighted>
-6.4342

> <Gold.Goldscore.External.Vdw.Weighted>
77.4516

> <Gold.Goldscore.Internal.HBond.Weighted>
0.0000

> <Gold.Goldscore.External.HBond.Weighted>
0.0000

> <Gold.Goldscore.Internal.Correction.Weighted>
-12.1469

> <Gold.Protein.RotatedTorsions>
[ 3781 1176 1175 1172 ] final -135.37 input   60.00 | X-H torsion
[ 3847 1247 1246 1244 ] final   49.84 input   60.00 | X-H torsion
[ 4507 1931 1930 1928 ] final  148.79 input   60.00 | X-H torsion
[ 3677 1070 1069 1066 ] final   -2.48 input   60.00 | X-H torsion
[ 3525  925  924  922 ] final   34.79 input   59.99 | X-H torsion
[ 4531 1957 1955 1953 ] final  107.92 input   60.00 | X-H torsion

> <Gold.Protein.ActiveResidues>
 PHE267  PRO268  MET310  ASP335  TRP336  MET339  TYR343  THR360  PRO361  ILE363
 PRO371  SER374  ILE375  ASN378  PHE381  TYR383  GLN384  PHE387  LEU408  LEU417
 MET419  LEU428  TYR466  MET469  ASN472  ASP496  VAL498  LEU499  MET503  HIS524
 TRP525

> <Gold.Protein.RotatedAtoms>
   -3.1783  -29.6975  -30.8147 H   0  0  0  0  0  0  0  0  0  0  0  0  # atno 3525 bound_to 925
  -12.8053  -23.2916  -30.6273 H   0  0  0  0  0  0  0  0  0  0  0  0  # atno 3677 bound_to 1070
   -9.3411  -36.3135  -33.5369 H   0  0  0  0  0  0  0  0  0  0  0  0  # atno 3781 bound_to 1176
  -14.9822  -28.9566  -37.2492 H   0  0  0  0  0  0  0  0  0  0  0  0  # atno 3847 bound_to 1247
  -12.5866  -23.7853  -39.7746 H   0  0  0  0  0  0  0  0  0  0  0  0  # atno 4507 bound_to 1931
   -2.5622  -33.9836  -36.7707 H   0  0  0  0  0  0  0  0  0  0  0  0  # atno 4531 bound_to 1957
  -10.0524  -37.2165  -32.3851 LP  0  0  0  0  0  0  0  0  0  0  0  0  # atno 5205 bound_to 1176
  -10.7221  -37.1070  -33.8704 LP  0  0  0  0  0  0  0  0  0  0  0  0  # atno 5206 bound_to 1176
  -16.0370  -27.7187  -37.3061 LP  0  0  0  0  0  0  0  0  0  0  0  0  # atno 5215 bound_to 1247
  -14.5467  -27.5557  -37.9534 LP  0  0  0  0  0  0  0  0  0  0  0  0  # atno 5216 bound_to 1247
  -12.9439  -25.0687  -38.8402 LP  0  0  0  0  0  0  0  0  0  0  0  0  # atno 5217 bound_to 1931
  -13.6677  -24.8858  -40.2925 LP  0  0  0  0  0  0  0  0  0  0  0  0  # atno 5218 bound_to 1931
  -11.4299  -23.5548  -31.4563 LP  0  0  0  0  0  0  0  0  0  0  0  0  # atno 5224 bound_to 1070
  -11.6128  -22.1851  -30.5863 LP  0  0  0  0  0  0  0  0  0  0  0  0  # atno 5225 bound_to 1070

$$$$
IA_106.cdx|SeH_inactivess_minimized|sdf|8|dock7
  -GOLD-   4172118423D 1   1.00000     0.00000

 69 68  0  0  0  0  0  0  0  0  1 V2000
  -12.6608  -24.9901  -36.7363 C   0  0  0  0  0  0  0  0  0  0  0  0
  -11.5694  -25.4054  -36.0767 C   0  0  0  0  0  0  0  0  0  0  0  0
   -5.7902  -34.3397  -33.7977 C   0  0  0  0  0  0  0  0  0  0  0  0
  -22.5018  -23.3300  -38.6608 C   0  0  0  0  0  0  0  0  0  0  0  0
   -5.8859  -38.0619  -32.8440 C   0  0  0  0  0  0  0  0  0  0  0  0
  -14.0544  -25.4413  -36.4054 C   0  0  0  0  0  0  0  0  0  0  0  0
  -11.6047  -26.3709  -34.9280 C   0  0  0  0  0  0  0  0  0  0  0  0
  -21.5113  -24.0464  -37.7562 C   0  0  0  0  0  0  0  0  0  0  0  0
   -4.7056  -37.1186  -32.6602 C   0  0  0  0  0  0  0  0  0  0  0  0
  -15.1015  -24.8970  -37.3835 C   0  0  0  0  0  0  0  0  0  0  0  0
  -10.3915  -26.2363  -34.0015 C   0  0  0  0  0  0  0  0  0  0  0  0
  -20.0746  -23.8667  -38.2482 C   0  0  0  0  0  0  0  0  0  0  0  0
  -16.5387  -25.0556  -36.8764 C   0  0  0  0  0  0  0  0  0  0  0  0
   -9.1185  -26.9479  -34.4766 C   0  0  0  0  0  0  0  0  0  0  0  0
  -19.0360  -24.5378  -37.3440 C   0  0  0  0  0  0  0  0  0  0  0  0
  -17.5760  -24.3910  -37.7875 C   0  0  0  0  0  0  0  0  0  0  0  0
   -9.2024  -28.4745  -34.5666 C   0  0  0  0  0  0  0  0  0  0  0  0
   -7.8549  -29.1434  -34.8457 C   0  0  0  0  0  0  0  0  0  0  0  0
   -8.0391  -30.6017  -35.2722 C   0  0  0  0  0  0  0  0  0  0  0  0
   -6.7314  -31.3886  -35.1483 C   0  0  0  0  0  0  0  0  0  0  0  0
   -5.0848  -35.8361  -31.9296 C   0  0  0  0  0  0  0  0  0  0  0  0
   -6.9107  -32.8698  -35.4674 C   0  0  0  0  0  0  0  0  0  0  0  0
   -6.0764  -35.0675  -32.6458 N   0  0  0  0  0  0  0  0  0  0  0  0
   -6.9252  -33.6905  -34.2876 N   0  0  0  0  0  0  0  0  0  0  0  0
   -4.6790  -34.2743  -34.3218 O   0  0  0  0  0  0  0  0  0  0  0  0
  -12.5492  -24.2867  -37.5572 H   0  0  0  0  0  0  0  0  0  0  0  0
  -10.5918  -25.0323  -36.3721 H   0  0  0  0  0  0  0  0  0  0  0  0
  -23.5301  -23.5841  -38.3880 H   0  0  0  0  0  0  0  0  0  0  0  0
  -22.3455  -23.6244  -39.7033 H   0  0  0  0  0  0  0  0  0  0  0  0
  -22.3847  -22.2439  -38.5923 H   0  0  0  0  0  0  0  0  0  0  0  0
   -5.5953  -38.9460  -33.4204 H   0  0  0  0  0  0  0  0  0  0  0  0
   -6.2537  -38.3992  -31.8696 H   0  0  0  0  0  0  0  0  0  0  0  0
   -6.7139  -37.5687  -33.3626 H   0  0  0  0  0  0  0  0  0  0  0  0
  -14.1077  -26.5372  -36.4168 H   0  0  0  0  0  0  0  0  0  0  0  0
  -14.2961  -25.1305  -35.3823 H   0  0  0  0  0  0  0  0  0  0  0  0
  -12.5314  -26.2685  -34.3519 H   0  0  0  0  0  0  0  0  0  0  0  0
  -11.6142  -27.3865  -35.3423 H   0  0  0  0  0  0  0  0  0  0  0  0
  -21.6202  -23.6530  -36.7401 H   0  0  0  0  0  0  0  0  0  0  0  0
  -21.7612  -25.1131  -37.7221 H   0  0  0  0  0  0  0  0  0  0  0  0
   -4.3076  -36.8589  -33.6479 H   0  0  0  0  0  0  0  0  0  0  0  0
   -3.9090  -37.6402  -32.1163 H   0  0  0  0  0  0  0  0  0  0  0  0
  -15.0010  -25.4384  -38.3325 H   0  0  0  0  0  0  0  0  0  0  0  0
  -14.8850  -23.8432  -37.5948 H   0  0  0  0  0  0  0  0  0  0  0  0
  -10.6528  -26.6307  -33.0106 H   0  0  0  0  0  0  0  0  0  0  0  0
  -10.1807  -25.1708  -33.8511 H   0  0  0  0  0  0  0  0  0  0  0  0
  -19.9841  -24.3026  -39.2512 H   0  0  0  0  0  0  0  0  0  0  0  0
  -19.8469  -22.8004  -38.3570 H   0  0  0  0  0  0  0  0  0  0  0  0
  -16.6350  -24.6619  -35.8593 H   0  0  0  0  0  0  0  0  0  0  0  0
  -16.7761  -26.1252  -36.8153 H   0  0  0  0  0  0  0  0  0  0  0  0
   -8.2845  -26.6843  -33.8147 H   0  0  0  0  0  0  0  0  0  0  0  0
   -8.8542  -26.5515  -35.4653 H   0  0  0  0  0  0  0  0  0  0  0  0
  -19.2841  -25.6022  -37.2581 H   0  0  0  0  0  0  0  0  0  0  0  0
  -19.1301  -24.1264  -36.3309 H   0  0  0  0  0  0  0  0  0  0  0  0
  -17.3458  -23.3210  -37.8677 H   0  0  0  0  0  0  0  0  0  0  0  0
  -17.4626  -24.7975  -38.7995 H   0  0  0  0  0  0  0  0  0  0  0  0
   -9.9290  -28.7687  -35.3323 H   0  0  0  0  0  0  0  0  0  0  0  0
   -9.5954  -28.8467  -33.6119 H   0  0  0  0  0  0  0  0  0  0  0  0
   -7.3248  -28.6032  -35.6381 H   0  0  0  0  0  0  0  0  0  0  0  0
   -7.2292  -29.1006  -33.9462 H   0  0  0  0  0  0  0  0  0  0  0  0
   -8.3917  -30.6379  -36.3102 H   0  0  0  0  0  0  0  0  0  0  0  0
   -8.8131  -31.0664  -34.6500 H   0  0  0  0  0  0  0  0  0  0  0  0
   -6.3277  -31.2733  -34.1349 H   0  0  0  0  0  0  0  0  0  0  0  0
   -5.9916  -30.9690  -35.8406 H   0  0  0  0  0  0  0  0  0  0  0  0
   -5.5115  -36.0752  -30.9504 H   0  0  0  0  0  0  0  0  0  0  0  0
   -4.2119  -35.1946  -31.7736 H   0  0  0  0  0  0  0  0  0  0  0  0
   -6.0833  -33.2226  -36.0907 H   0  0  0  0  0  0  0  0  0  0  0  0
   -7.8460  -33.0452  -36.0083 H   0  0  0  0  0  0  0  0  0  0  0  0
   -7.0281  -35.0577  -32.2922 H   0  0  0  0  0  0  0  0  0  0  0  0
   -7.8113  -33.8434  -33.8097 H   0  0  0  0  0  0  0  0  0  0  0  0
  1  2  2  0  0  0  0
  1  6  1  0  0  0  0
  2  7  1  0  0  0  0
  3 23  1  0  0  0  0
  3 24  1  0  0  0  0
  3 25  2  0  0  0  0
  4  8  1  0  0  0  0
  5  9  1  0  0  0  0
  6 10  1  0  0  0  0
  7 11  1  0  0  0  0
  8 12  1  0  0  0  0
  9 21  1  0  0  0  0
 10 13  1  0  0  0  0
 11 14  1  0  0  0  0
 12 15  1  0  0  0  0
 13 16  1  0  0  0  0
 14 17  1  0  0  0  0
 15 16  1  0  0  0  0
 17 18  1  0  0  0  0
 18 19  1  0  0  0  0
 19 20  1  0  0  0  0
 20 22  1  0  0  0  0
 21 23  1  0  0  0  0
 22 24  1  0  0  0  0
  1 26  1  0  0  0  0
  2 27  1  0  0  0  0
  4 28  1  0  0  0  0
  4 29  1  0  0  0  0
  4 30  1  0  0  0  0
  5 31  1  0  0  0  0
  5 32  1  0  0  0  0
  5 33  1  0  0  0  0
  6 34  1  0  0  0  0
  6 35  1  0  0  0  0
  7 36  1  0  0  0  0
  7 37  1  0  0  0  0
  8 38  1  0  0  0  0
  8 39  1  0  0  0  0
  9 40  1  0  0  0  0
  9 41  1  0  0  0  0
 10 42  1  0  0  0  0
 10 43  1  0  0  0  0
 11 44  1  0  0  0  0
 11 45  1  0  0  0  0
 12 46  1  0  0  0  0
 12 47  1  0  0  0  0
 13 48  1  0  0  0  0
 13 49  1  0  0  0  0
 14 50  1  0  0  0  0
 14 51  1  0  0  0  0
 15 52  1  0  0  0  0
 15 53  1  0  0  0  0
 16 54  1  0  0  0  0
 16 55  1  0  0  0  0
 17 56  1  0  0  0  0
 17 57  1  0  0  0  0
 18 58  1  0  0  0  0
 18 59  1  0  0  0  0
 19 60  1  0  0  0  0
 19 61  1  0  0  0  0
 20 62  1  0  0  0  0
 20 63  1  0  0  0  0
 21 64  1  0  0  0  0
 21 65  1  0  0  0  0
 22 66  1  0  0  0  0
 22 67  1  0  0  0  0
 23 68  1  0  0  0  0
 24 69  1  0  0  0  0
M  END
> <Name>
IA_106.cdx

> <SourceTag>
IA_106

> <Gold.Version>
5.2

> <Gold.Id.Protein>
6HGV|6HGV_protein|mol2

> <Gold.Goldscore.Fitness>
75.5911

> <Gold.Goldscore.Internal.Vdw>
-8.1542

> <Gold.Goldscore.Internal.Torsion>
-8.7953

> <Gold.Goldscore.External.Vdw>
58.0203

> <Gold.Goldscore.Internal.HBond>
0.0000

> <Gold.Goldscore.External.HBond>
0.2828

> <Gold.Goldscore.Internal.Correction>
-12.4799

> <Gold.Goldscore.Hbonds>
donor molecule, donor type, donor heavy atom, donor atom, acceptor molecule, acceptor atom, score
      P1  H  1957  4531       L1    25  0.14

> <Gold.Goldscore.Internal.Vdw.Weighted>
-8.1542

> <Gold.Goldscore.Internal.Torsion.Weighted>
-8.7953

> <Gold.Goldscore.External.Vdw.Weighted>
79.7779

> <Gold.Goldscore.Internal.HBond.Weighted>
0.0000

> <Gold.Goldscore.External.HBond.Weighted>
0.2828

> <Gold.Goldscore.Internal.Correction.Weighted>
-12.4799

> <Gold.Protein.RotatedTorsions>
[ 3781 1176 1175 1172 ] final -149.43 input   60.00 | X-H torsion
[ 3847 1247 1246 1244 ] final  -16.85 input   60.00 | X-H torsion
[ 4507 1931 1930 1928 ] final  -83.78 input   60.00 | X-H torsion
[ 3677 1070 1069 1066 ] final -103.32 input   60.00 | X-H torsion
[ 3525  925  924  922 ] final  -55.39 input   59.99 | X-H torsion
[ 4531 1957 1955 1953 ] final   61.88 input   60.00 | X-H torsion

> <Gold.Protein.ActiveResidues>
 PHE267  PRO268  MET310  ASP335  TRP336  MET339  TYR343  THR360  PRO361  ILE363
 PRO371  SER374  ILE375  ASN378  PHE381  TYR383  GLN384  PHE387  LEU408  LEU417
 MET419  LEU428  TYR466  MET469  ASN472  ASP496  VAL498  LEU499  MET503  HIS524
 TRP525

> <Gold.Protein.RotatedAtoms>
   -3.7299  -29.5667  -29.6158 H   0  0  0  0  0  0  0  0  0  0  0  0  # atno 3525 bound_to 925
  -11.6871  -23.7306  -31.4270 H   0  0  0  0  0  0  0  0  0  0  0  0  # atno 3677 bound_to 1070
   -9.2686  -36.3457  -33.3219 H   0  0  0  0  0  0  0  0  0  0  0  0  # atno 3781 bound_to 1176
  -15.8916  -28.5125  -37.0622 H   0  0  0  0  0  0  0  0  0  0  0  0  # atno 3847 bound_to 1247
  -13.6833  -24.9779  -40.2142 H   0  0  0  0  0  0  0  0  0  0  0  0  # atno 4507 bound_to 1931
   -3.0470  -33.4443  -36.6692 H   0  0  0  0  0  0  0  0  0  0  0  0  # atno 4531 bound_to 1957
  -10.2461  -37.3184  -32.4580 LP  0  0  0  0  0  0  0  0  0  0  0  0  # atno 5205 bound_to 1176
  -10.6014  -36.9727  -34.0140 LP  0  0  0  0  0  0  0  0  0  0  0  0  # atno 5206 bound_to 1176
  -15.2941  -27.1907  -37.7996 LP  0  0  0  0  0  0  0  0  0  0  0  0  # atno 5215 bound_to 1247
  -14.3737  -28.5310  -37.6482 LP  0  0  0  0  0  0  0  0  0  0  0  0  # atno 5216 bound_to 1247
  -12.6430  -23.7715  -39.8818 LP  0  0  0  0  0  0  0  0  0  0  0  0  # atno 5217 bound_to 1931
  -12.8641  -24.9819  -38.8082 LP  0  0  0  0  0  0  0  0  0  0  0  0  # atno 5218 bound_to 1931
  -11.3696  -22.2806  -30.7603 LP  0  0  0  0  0  0  0  0  0  0  0  0  # atno 5224 bound_to 1070
  -12.7992  -23.0172  -30.4770 LP  0  0  0  0  0  0  0  0  0  0  0  0  # atno 5225 bound_to 1070

$$$$
IA_106.cdx|SeH_inactivess_minimized|sdf|8|dock1
  -GOLD-   4172118403D 1   1.00000     0.00000

 69 68  0  0  0  0  0  0  0  0  1 V2000
  -16.1434  -25.5579  -36.2051 C   0  0  0  0  0  0  0  0  0  0  0  0
  -14.8472  -25.6850  -35.8849 C   0  0  0  0  0  0  0  0  0  0  0  0
   -5.6812  -32.4132  -33.4276 C   0  0  0  0  0  0  0  0  0  0  0  0
  -23.9593  -24.1309  -34.2341 C   0  0  0  0  0  0  0  0  0  0  0  0
   -5.1955  -37.0224  -32.8758 C   0  0  0  0  0  0  0  0  0  0  0  0
  -16.6282  -25.1728  -37.5733 C   0  0  0  0  0  0  0  0  0  0  0  0
  -13.7219  -25.4585  -36.8521 C   0  0  0  0  0  0  0  0  0  0  0  0
  -24.0738  -24.5252  -35.6983 C   0  0  0  0  0  0  0  0  0  0  0  0
   -5.6495  -35.6359  -33.3098 C   0  0  0  0  0  0  0  0  0  0  0  0
  -17.8854  -24.2971  -37.5318 C   0  0  0  0  0  0  0  0  0  0  0  0
  -12.3419  -25.5893  -36.1988 C   0  0  0  0  0  0  0  0  0  0  0  0
  -22.9077  -23.9720  -36.5185 C   0  0  0  0  0  0  0  0  0  0  0  0
  -19.0919  -25.0054  -36.9067 C   0  0  0  0  0  0  0  0  0  0  0  0
  -11.7432  -27.0015  -36.2024 C   0  0  0  0  0  0  0  0  0  0  0  0
  -21.6138  -24.7745  -36.3500 C   0  0  0  0  0  0  0  0  0  0  0  0
  -20.4186  -24.2881  -37.1774 C   0  0  0  0  0  0  0  0  0  0  0  0
  -10.3523  -27.1373  -35.5760 C   0  0  0  0  0  0  0  0  0  0  0  0
   -9.8265  -28.5742  -35.5656 C   0  0  0  0  0  0  0  0  0  0  0  0
   -8.6224  -28.7157  -34.6315 C   0  0  0  0  0  0  0  0  0  0  0  0
   -7.8402  -30.0000  -34.9203 C   0  0  0  0  0  0  0  0  0  0  0  0
   -4.5166  -34.6167  -33.3043 C   0  0  0  0  0  0  0  0  0  0  0  0
   -6.6597  -30.1884  -33.9722 C   0  0  0  0  0  0  0  0  0  0  0  0
   -4.8713  -33.3960  -33.9905 N   0  0  0  0  0  0  0  0  0  0  0  0
   -5.8658  -31.3401  -34.3018 N   0  0  0  0  0  0  0  0  0  0  0  0
   -6.1739  -32.4777  -32.3021 O   0  0  0  0  0  0  0  0  0  0  0  0
  -16.8983  -25.7419  -35.4452 H   0  0  0  0  0  0  0  0  0  0  0  0
  -14.5720  -25.9701  -34.8724 H   0  0  0  0  0  0  0  0  0  0  0  0
  -23.0080  -24.4703  -33.8144 H   0  0  0  0  0  0  0  0  0  0  0  0
  -24.7674  -24.5872  -33.6538 H   0  0  0  0  0  0  0  0  0  0  0  0
  -24.0231  -23.0451  -34.1116 H   0  0  0  0  0  0  0  0  0  0  0  0
   -4.4381  -37.4190  -33.5594 H   0  0  0  0  0  0  0  0  0  0  0  0
   -4.7570  -36.9784  -31.8736 H   0  0  0  0  0  0  0  0  0  0  0  0
   -6.0339  -37.7252  -32.8445 H   0  0  0  0  0  0  0  0  0  0  0  0
  -15.8434  -24.6254  -38.1102 H   0  0  0  0  0  0  0  0  0  0  0  0
  -16.8215  -26.0835  -38.1522 H   0  0  0  0  0  0  0  0  0  0  0  0
  -13.7965  -26.1331  -37.7125 H   0  0  0  0  0  0  0  0  0  0  0  0
  -13.8217  -24.4421  -37.2523 H   0  0  0  0  0  0  0  0  0  0  0  0
  -24.1034  -25.6180  -35.7633 H   0  0  0  0  0  0  0  0  0  0  0  0
  -25.0216  -24.1484  -36.0997 H   0  0  0  0  0  0  0  0  0  0  0  0
   -6.4359  -35.2950  -32.6265 H   0  0  0  0  0  0  0  0  0  0  0  0
   -6.0940  -35.6993  -34.3102 H   0  0  0  0  0  0  0  0  0  0  0  0
  -18.1393  -24.0097  -38.5598 H   0  0  0  0  0  0  0  0  0  0  0  0
  -17.6627  -23.3709  -36.9890 H   0  0  0  0  0  0  0  0  0  0  0  0
  -12.4060  -25.2490  -35.1568 H   0  0  0  0  0  0  0  0  0  0  0  0
  -11.6511  -24.8976  -36.6953 H   0  0  0  0  0  0  0  0  0  0  0  0
  -23.1807  -23.9867  -37.5812 H   0  0  0  0  0  0  0  0  0  0  0  0
  -22.7354  -22.9207  -36.2621 H   0  0  0  0  0  0  0  0  0  0  0  0
  -18.9519  -25.1270  -35.8277 H   0  0  0  0  0  0  0  0  0  0  0  0
  -19.1623  -26.0181  -37.3232 H   0  0  0  0  0  0  0  0  0  0  0  0
  -11.6985  -27.3761  -37.2324 H   0  0  0  0  0  0  0  0  0  0  0  0
  -12.4348  -27.6671  -35.6705 H   0  0  0  0  0  0  0  0  0  0  0  0
  -21.8200  -25.8237  -36.5921 H   0  0  0  0  0  0  0  0  0  0  0  0
  -21.3256  -24.7633  -35.2911 H   0  0  0  0  0  0  0  0  0  0  0  0
  -20.2864  -23.2142  -36.9943 H   0  0  0  0  0  0  0  0  0  0  0  0
  -20.6545  -24.3822  -38.2441 H   0  0  0  0  0  0  0  0  0  0  0  0
  -10.3559  -26.7356  -34.5566 H   0  0  0  0  0  0  0  0  0  0  0  0
   -9.6614  -26.5080  -36.1512 H   0  0  0  0  0  0  0  0  0  0  0  0
  -10.6158  -29.2602  -35.2384 H   0  0  0  0  0  0  0  0  0  0  0  0
   -9.5386  -28.8684  -36.5820 H   0  0  0  0  0  0  0  0  0  0  0  0
   -8.9659  -28.7223  -33.5898 H   0  0  0  0  0  0  0  0  0  0  0  0
   -7.9662  -27.8457  -34.7515 H   0  0  0  0  0  0  0  0  0  0  0  0
   -7.4849  -29.9885  -35.9580 H   0  0  0  0  0  0  0  0  0  0  0  0
   -8.5114  -30.8613  -34.8180 H   0  0  0  0  0  0  0  0  0  0  0  0
   -4.2642  -34.3431  -32.2749 H   0  0  0  0  0  0  0  0  0  0  0  0
   -3.6171  -35.0196  -33.7801 H   0  0  0  0  0  0  0  0  0  0  0  0
   -7.0192  -30.3317  -32.9485 H   0  0  0  0  0  0  0  0  0  0  0  0
   -6.0016  -29.3138  -33.9848 H   0  0  0  0  0  0  0  0  0  0  0  0
   -4.5126  -33.2474  -34.9287 H   0  0  0  0  0  0  0  0  0  0  0  0
   -5.3781  -31.3579  -35.1956 H   0  0  0  0  0  0  0  0  0  0  0  0
  1  2  2  0  0  0  0
  1  6  1  0  0  0  0
  2  7  1  0  0  0  0
  3 23  1  0  0  0  0
  3 24  1  0  0  0  0
  3 25  2  0  0  0  0
  4  8  1  0  0  0  0
  5  9  1  0  0  0  0
  6 10  1  0  0  0  0
  7 11  1  0  0  0  0
  8 12  1  0  0  0  0
  9 21  1  0  0  0  0
 10 13  1  0  0  0  0
 11 14  1  0  0  0  0
 12 15  1  0  0  0  0
 13 16  1  0  0  0  0
 14 17  1  0  0  0  0
 15 16  1  0  0  0  0
 17 18  1  0  0  0  0
 18 19  1  0  0  0  0
 19 20  1  0  0  0  0
 20 22  1  0  0  0  0
 21 23  1  0  0  0  0
 22 24  1  0  0  0  0
  1 26  1  0  0  0  0
  2 27  1  0  0  0  0
  4 28  1  0  0  0  0
  4 29  1  0  0  0  0
  4 30  1  0  0  0  0
  5 31  1  0  0  0  0
  5 32  1  0  0  0  0
  5 33  1  0  0  0  0
  6 34  1  0  0  0  0
  6 35  1  0  0  0  0
  7 36  1  0  0  0  0
  7 37  1  0  0  0  0
  8 38  1  0  0  0  0
  8 39  1  0  0  0  0
  9 40  1  0  0  0  0
  9 41  1  0  0  0  0
 10 42  1  0  0  0  0
 10 43  1  0  0  0  0
 11 44  1  0  0  0  0
 11 45  1  0  0  0  0
 12 46  1  0  0  0  0
 12 47  1  0  0  0  0
 13 48  1  0  0  0  0
 13 49  1  0  0  0  0
 14 50  1  0  0  0  0
 14 51  1  0  0  0  0
 15 52  1  0  0  0  0
 15 53  1  0  0  0  0
 16 54  1  0  0  0  0
 16 55  1  0  0  0  0
 17 56  1  0  0  0  0
 17 57  1  0  0  0  0
 18 58  1  0  0  0  0
 18 59  1  0  0  0  0
 19 60  1  0  0  0  0
 19 61  1  0  0  0  0
 20 62  1  0  0  0  0
 20 63  1  0  0  0  0
 21 64  1  0  0  0  0
 21 65  1  0  0  0  0
 22 66  1  0  0  0  0
 22 67  1  0  0  0  0
 23 68  1  0  0  0  0
 24 69  1  0  0  0  0
M  END
> <Name>
IA_106.cdx

> <SourceTag>
IA_106

> <Gold.Version>
5.2

> <Gold.Id.Protein>
6HGV|6HGV_protein|mol2

> <Gold.Goldscore.Fitness>
73.8177

> <Gold.Goldscore.Internal.Vdw>
-10.1060

> <Gold.Goldscore.Internal.Torsion>
-7.3878

> <Gold.Goldscore.External.Vdw>
56.6620

> <Gold.Goldscore.Internal.HBond>
0.0000

> <Gold.Goldscore.External.HBond>
0.0000

> <Gold.Goldscore.Internal.Correction>
-13.4012

> <Gold.Goldscore.Internal.Vdw.Weighted>
-10.1060

> <Gold.Goldscore.Internal.Torsion.Weighted>
-7.3878

> <Gold.Goldscore.External.Vdw.Weighted>
77.9103

> <Gold.Goldscore.Internal.HBond.Weighted>
0.0000

> <Gold.Goldscore.External.HBond.Weighted>
0.0000

> <Gold.Goldscore.Internal.Correction.Weighted>
-13.4012

> <Gold.Protein.RotatedTorsions>
[ 3781 1176 1175 1172 ] final -170.41 input   60.00 | X-H torsion
[ 3847 1247 1246 1244 ] final  -28.23 input   60.00 | X-H torsion
[ 4507 1931 1930 1928 ] final  -75.52 input   60.00 | X-H torsion
[ 3677 1070 1069 1066 ] final  -92.64 input   60.00 | X-H torsion
[ 3525  925  924  922 ] final   25.47 input   59.99 | X-H torsion
[ 4531 1957 1955 1953 ] final  -10.89 input   60.00 | X-H torsion

> <Gold.Protein.ActiveResidues>
 PHE267  PRO268  MET310  ASP335  TRP336  MET339  TYR343  THR360  PRO361  ILE363
 PRO371  SER374  ILE375  ASN378  PHE381  TYR383  GLN384  PHE387  LEU408  LEU417
 MET419  LEU428  TYR466  MET469  ASN472  ASP496  VAL498  LEU499  MET503  HIS524
 TRP525

> <Gold.Protein.RotatedAtoms>
   -3.3072  -29.6471  -30.7513 H   0  0  0  0  0  0  0  0  0  0  0  0  # atno 3525 bound_to 925
  -11.8436  -23.7965  -31.3876 H   0  0  0  0  0  0  0  0  0  0  0  0  # atno 3677 bound_to 1070
   -9.2466  -36.4521  -32.9988 H   0  0  0  0  0  0  0  0  0  0  0  0  # atno 3781 bound_to 1176
  -15.9819  -28.3524  -37.0880 H   0  0  0  0  0  0  0  0  0  0  0  0  # atno 3847 bound_to 1247
  -13.6951  -25.0735  -40.1198 H   0  0  0  0  0  0  0  0  0  0  0  0  # atno 4507 bound_to 1931
   -2.7272  -32.3813  -36.7116 H   0  0  0  0  0  0  0  0  0  0  0  0  # atno 4531 bound_to 1957
  -10.5087  -37.4200  -32.6546 LP  0  0  0  0  0  0  0  0  0  0  0  0  # atno 5205 bound_to 1176
  -10.3610  -36.7641  -34.1428 LP  0  0  0  0  0  0  0  0  0  0  0  0  # atno 5206 bound_to 1176
  -15.1187  -27.2100  -37.8611 LP  0  0  0  0  0  0  0  0  0  0  0  0  # atno 5215 bound_to 1247
  -14.4582  -28.6729  -37.5607 LP  0  0  0  0  0  0  0  0  0  0  0  0  # atno 5216 bound_to 1247
  -12.7159  -23.7797  -39.9962 LP  0  0  0  0  0  0  0  0  0  0  0  0  # atno 5217 bound_to 1931
  -12.7794  -24.8775  -38.7889 LP  0  0  0  0  0  0  0  0  0  0  0  0  # atno 5218 bound_to 1931
  -11.2606  -22.3699  -30.8647 LP  0  0  0  0  0  0  0  0  0  0  0  0  # atno 5224 bound_to 1070
  -12.7506  -22.8616  -30.4122 LP  0  0  0  0  0  0  0  0  0  0  0  0  # atno 5225 bound_to 1070

$$$$
IA_106.cdx|SeH_inactivess_minimized|sdf|8|dock9
  -GOLD-   4172118433D 1   1.00000     0.00000

 69 68  0  0  0  0  0  0  0  0  1 V2000
  -15.0132  -26.4808  -35.5983 C   0  0  0  0  0  0  0  0  0  0  0  0
  -13.6979  -26.7287  -35.5143 C   0  0  0  0  0  0  0  0  0  0  0  0
   -5.3543  -33.0244  -34.0208 C   0  0  0  0  0  0  0  0  0  0  0  0
  -22.9963  -22.9290  -37.8738 C   0  0  0  0  0  0  0  0  0  0  0  0
   -4.8206  -37.8222  -32.6313 C   0  0  0  0  0  0  0  0  0  0  0  0
  -15.6042  -25.4145  -36.4752 C   0  0  0  0  0  0  0  0  0  0  0  0
  -12.6547  -25.9728  -36.2845 C   0  0  0  0  0  0  0  0  0  0  0  0
  -22.3737  -24.2411  -38.3244 C   0  0  0  0  0  0  0  0  0  0  0  0
   -5.1146  -36.3760  -32.2590 C   0  0  0  0  0  0  0  0  0  0  0  0
  -17.1265  -25.5337  -36.6090 C   0  0  0  0  0  0  0  0  0  0  0  0
  -11.2543  -26.5780  -36.1392 C   0  0  0  0  0  0  0  0  0  0  0  0
  -21.2279  -24.0063  -39.3095 C   0  0  0  0  0  0  0  0  0  0  0  0
  -17.7355  -24.4665  -37.5246 C   0  0  0  0  0  0  0  0  0  0  0  0
  -10.5671  -26.3302  -34.7905 C   0  0  0  0  0  0  0  0  0  0  0  0
  -19.9166  -23.6020  -38.6287 C   0  0  0  0  0  0  0  0  0  0  0  0
  -19.2194  -24.7043  -37.8232 C   0  0  0  0  0  0  0  0  0  0  0  0
   -9.0992  -26.7579  -34.7020 C   0  0  0  0  0  0  0  0  0  0  0  0
   -8.9021  -28.2744  -34.7552 C   0  0  0  0  0  0  0  0  0  0  0  0
   -7.4553  -28.6557  -34.4331 C   0  0  0  0  0  0  0  0  0  0  0  0
   -7.2522  -30.1724  -34.4903 C   0  0  0  0  0  0  0  0  0  0  0  0
   -5.0133  -35.4292  -33.4489 C   0  0  0  0  0  0  0  0  0  0  0  0
   -5.8220  -30.5814  -34.1511 C   0  0  0  0  0  0  0  0  0  0  0  0
   -5.3837  -34.0752  -33.1078 N   0  0  0  0  0  0  0  0  0  0  0  0
   -5.7594  -31.8246  -33.4326 N   0  0  0  0  0  0  0  0  0  0  0  0
   -5.0154  -33.1346  -35.1983 O   0  0  0  0  0  0  0  0  0  0  0  0
  -15.7043  -27.0762  -35.0075 H   0  0  0  0  0  0  0  0  0  0  0  0
  -13.3437  -27.5203  -34.8584 H   0  0  0  0  0  0  0  0  0  0  0  0
  -22.2773  -22.3344  -37.3029 H   0  0  0  0  0  0  0  0  0  0  0  0
  -23.8624  -23.1202  -37.2325 H   0  0  0  0  0  0  0  0  0  0  0  0
  -23.3314  -22.3362  -38.7308 H   0  0  0  0  0  0  0  0  0  0  0  0
   -4.8181  -38.4630  -31.7437 H   0  0  0  0  0  0  0  0  0  0  0  0
   -5.5867  -38.1976  -33.3174 H   0  0  0  0  0  0  0  0  0  0  0  0
   -3.8500  -37.9171  -33.1280 H   0  0  0  0  0  0  0  0  0  0  0  0
  -15.3696  -24.4219  -36.0706 H   0  0  0  0  0  0  0  0  0  0  0  0
  -15.1334  -25.4647  -37.4639 H   0  0  0  0  0  0  0  0  0  0  0  0
  -12.9228  -25.8947  -37.3442 H   0  0  0  0  0  0  0  0  0  0  0  0
  -12.6307  -24.9458  -35.8999 H   0  0  0  0  0  0  0  0  0  0  0  0
  -22.0145  -24.7779  -37.4401 H   0  0  0  0  0  0  0  0  0  0  0  0
  -23.1446  -24.8632  -38.7933 H   0  0  0  0  0  0  0  0  0  0  0  0
   -4.3980  -36.0590  -31.4924 H   0  0  0  0  0  0  0  0  0  0  0  0
   -6.1146  -36.3149  -31.8133 H   0  0  0  0  0  0  0  0  0  0  0  0
  -17.5691  -25.4350  -35.6099 H   0  0  0  0  0  0  0  0  0  0  0  0
  -17.3798  -26.5371  -36.9708 H   0  0  0  0  0  0  0  0  0  0  0  0
  -10.6074  -26.1763  -36.9303 H   0  0  0  0  0  0  0  0  0  0  0  0
  -11.3167  -27.6567  -36.3255 H   0  0  0  0  0  0  0  0  0  0  0  0
  -21.0472  -24.9304  -39.8731 H   0  0  0  0  0  0  0  0  0  0  0  0
  -21.5180  -23.2503  -40.0477 H   0  0  0  0  0  0  0  0  0  0  0  0
  -17.1766  -24.3986  -38.4635 H   0  0  0  0  0  0  0  0  0  0  0  0
  -17.6397  -23.4872  -37.0387 H   0  0  0  0  0  0  0  0  0  0  0  0
  -11.1261  -26.8409  -33.9969 H   0  0  0  0  0  0  0  0  0  0  0  0
  -10.6352  -25.2586  -34.5641 H   0  0  0  0  0  0  0  0  0  0  0  0
  -20.1130  -22.7439  -37.9751 H   0  0  0  0  0  0  0  0  0  0  0  0
  -19.2171  -23.2411  -39.3935 H   0  0  0  0  0  0  0  0  0  0  0  0
  -19.3254  -25.6502  -38.3696 H   0  0  0  0  0  0  0  0  0  0  0  0
  -19.7477  -24.8475  -36.8731 H   0  0  0  0  0  0  0  0  0  0  0  0
   -8.6423  -26.3556  -33.7909 H   0  0  0  0  0  0  0  0  0  0  0  0
   -8.5635  -26.2982  -35.5423 H   0  0  0  0  0  0  0  0  0  0  0  0
   -9.5696  -28.7648  -34.0378 H   0  0  0  0  0  0  0  0  0  0  0  0
   -9.1657  -28.6452  -35.7529 H   0  0  0  0  0  0  0  0  0  0  0  0
   -7.1937  -28.2884  -33.4332 H   0  0  0  0  0  0  0  0  0  0  0  0
   -6.7833  -28.1634  -35.1459 H   0  0  0  0  0  0  0  0  0  0  0  0
   -7.5170  -30.5412  -35.4888 H   0  0  0  0  0  0  0  0  0  0  0  0
   -7.9319  -30.6539  -33.7770 H   0  0  0  0  0  0  0  0  0  0  0  0
   -3.9821  -35.3963  -33.8145 H   0  0  0  0  0  0  0  0  0  0  0  0
   -5.6565  -35.7555  -34.2722 H   0  0  0  0  0  0  0  0  0  0  0  0
   -5.3548  -29.8225  -33.5158 H   0  0  0  0  0  0  0  0  0  0  0  0
   -5.2179  -30.6883  -35.0576 H   0  0  0  0  0  0  0  0  0  0  0  0
   -5.6799  -33.8804  -32.1564 H   0  0  0  0  0  0  0  0  0  0  0  0
   -6.0660  -31.8437  -32.4616 H   0  0  0  0  0  0  0  0  0  0  0  0
  1  2  2  0  0  0  0
  1  6  1  0  0  0  0
  2  7  1  0  0  0  0
  3 23  1  0  0  0  0
  3 24  1  0  0  0  0
  3 25  2  0  0  0  0
  4  8  1  0  0  0  0
  5  9  1  0  0  0  0
  6 10  1  0  0  0  0
  7 11  1  0  0  0  0
  8 12  1  0  0  0  0
  9 21  1  0  0  0  0
 10 13  1  0  0  0  0
 11 14  1  0  0  0  0
 12 15  1  0  0  0  0
 13 16  1  0  0  0  0
 14 17  1  0  0  0  0
 15 16  1  0  0  0  0
 17 18  1  0  0  0  0
 18 19  1  0  0  0  0
 19 20  1  0  0  0  0
 20 22  1  0  0  0  0
 21 23  1  0  0  0  0
 22 24  1  0  0  0  0
  1 26  1  0  0  0  0
  2 27  1  0  0  0  0
  4 28  1  0  0  0  0
  4 29  1  0  0  0  0
  4 30  1  0  0  0  0
  5 31  1  0  0  0  0
  5 32  1  0  0  0  0
  5 33  1  0  0  0  0
  6 34  1  0  0  0  0
  6 35  1  0  0  0  0
  7 36  1  0  0  0  0
  7 37  1  0  0  0  0
  8 38  1  0  0  0  0
  8 39  1  0  0  0  0
  9 40  1  0  0  0  0
  9 41  1  0  0  0  0
 10 42  1  0  0  0  0
 10 43  1  0  0  0  0
 11 44  1  0  0  0  0
 11 45  1  0  0  0  0
 12 46  1  0  0  0  0
 12 47  1  0  0  0  0
 13 48  1  0  0  0  0
 13 49  1  0  0  0  0
 14 50  1  0  0  0  0
 14 51  1  0  0  0  0
 15 52  1  0  0  0  0
 15 53  1  0  0  0  0
 16 54  1  0  0  0  0
 16 55  1  0  0  0  0
 17 56  1  0  0  0  0
 17 57  1  0  0  0  0
 18 58  1  0  0  0  0
 18 59  1  0  0  0  0
 19 60  1  0  0  0  0
 19 61  1  0  0  0  0
 20 62  1  0  0  0  0
 20 63  1  0  0  0  0
 21 64  1  0  0  0  0
 21 65  1  0  0  0  0
 22 66  1  0  0  0  0
 22 67  1  0  0  0  0
 23 68  1  0  0  0  0
 24 69  1  0  0  0  0
M  END
> <Name>
IA_106.cdx

> <SourceTag>
IA_106

> <Gold.Version>
5.2

> <Gold.Id.Protein>
6HGV|6HGV_protein|mol2

> <Gold.Goldscore.Fitness>
70.6513

> <Gold.Goldscore.Internal.Vdw>
-8.3199

> <Gold.Goldscore.Internal.Torsion>
-8.6335

> <Gold.Goldscore.External.Vdw>
54.2970

> <Gold.Goldscore.Internal.HBond>
0.0000

> <Gold.Goldscore.External.HBond>
0.7995

> <Gold.Goldscore.Internal.Correction>
-12.1469

> <Gold.Goldscore.Hbonds>
donor molecule, donor type, donor heavy atom, donor atom, acceptor molecule, acceptor atom, score
      P1  H  1957  4531       L1    25  0.40

> <Gold.Goldscore.Internal.Vdw.Weighted>
-8.3199

> <Gold.Goldscore.Internal.Torsion.Weighted>
-8.6335

> <Gold.Goldscore.External.Vdw.Weighted>
74.6583

> <Gold.Goldscore.Internal.HBond.Weighted>
0.0000

> <Gold.Goldscore.External.HBond.Weighted>
0.7995

> <Gold.Goldscore.Internal.Correction.Weighted>
-12.1469

> <Gold.Protein.RotatedTorsions>
[ 3781 1176 1175 1172 ] final -166.69 input   60.00 | X-H torsion
[ 3847 1247 1246 1244 ] final  107.28 input   60.00 | X-H torsion
[ 4507 1931 1930 1928 ] final  -52.18 input   60.00 | X-H torsion
[ 3677 1070 1069 1066 ] final -109.65 input   60.00 | X-H torsion
[ 3525  925  924  922 ] final   19.54 input   59.99 | X-H torsion
[ 4531 1957 1955 1953 ] final   37.48 input   60.00 | X-H torsion

> <Gold.Protein.ActiveResidues>
 PHE267  PRO268  MET310  ASP335  TRP336  MET339  TYR343  THR360  PRO361  ILE363
 PRO371  SER374  ILE375  ASN378  PHE381  TYR383  GLN384  PHE387  LEU408  LEU417
 MET419  LEU428  TYR466  MET469  ASN472  ASP496  VAL498  LEU499  MET503  HIS524
 TRP525

> <Gold.Protein.RotatedAtoms>
   -3.3838  -29.6184  -30.6998 H   0  0  0  0  0  0  0  0  0  0  0  0  # atno 3525 bound_to 925
  -11.5983  -23.6797  -31.4416 H   0  0  0  0  0  0  0  0  0  0  0  0  # atno 3677 bound_to 1070
   -9.2428  -36.4286  -33.0547 H   0  0  0  0  0  0  0  0  0  0  0  0  # atno 3781 bound_to 1176
  -14.3575  -28.4728  -37.6795 H   0  0  0  0  0  0  0  0  0  0  0  0  # atno 3847 bound_to 1247
  -13.6579  -25.2823  -39.8061 H   0  0  0  0  0  0  0  0  0  0  0  0  # atno 4507 bound_to 1931
   -3.0953  -33.0520  -36.6532 H   0  0  0  0  0  0  0  0  0  0  0  0  # atno 4531 bound_to 1957
  -10.4658  -37.4069  -32.6130 LP  0  0  0  0  0  0  0  0  0  0  0  0  # atno 5205 bound_to 1176
  -10.4078  -36.8007  -34.1281 LP  0  0  0  0  0  0  0  0  0  0  0  0  # atno 5206 bound_to 1176
  -15.8557  -28.5693  -37.0518 LP  0  0  0  0  0  0  0  0  0  0  0  0  # atno 5215 bound_to 1247
  -15.3572  -27.1923  -37.7742 LP  0  0  0  0  0  0  0  0  0  0  0  0  # atno 5216 bound_to 1247
  -12.9553  -23.8903  -40.2716 LP  0  0  0  0  0  0  0  0  0  0  0  0  # atno 5217 bound_to 1931
  -12.5774  -24.5566  -38.8294 LP  0  0  0  0  0  0  0  0  0  0  0  0  # atno 5218 bound_to 1931
  -11.4441  -22.2393  -30.7002 LP  0  0  0  0  0  0  0  0  0  0  0  0  # atno 5224 bound_to 1070
  -12.8142  -23.1098  -30.5223 LP  0  0  0  0  0  0  0  0  0  0  0  0  # atno 5225 bound_to 1070

$$$$
IA_107.cdx|SeH_inactivess_minimized|sdf|9|dock7
  -GOLD-   4172118443D 1   1.00000     0.00000

 27 27  0  0  0  0  0  0  0  0  1 V2000
  -13.8067  -25.0927  -37.4846 C   0  0  0  0  0  0  0  0  0  0  0  0
  -10.4274  -25.7769  -33.8443 C   0  0  0  0  0  0  0  0  0  0  0  0
   -9.9669  -25.6122  -35.2902 C   0  0  0  0  0  0  0  0  0  0  0  0
  -11.9435  -25.6596  -33.7124 C   0  0  0  0  0  0  0  0  0  0  0  0
  -10.6945  -26.5783  -36.2260 C   0  0  0  0  0  0  0  0  0  0  0  0
  -12.6664  -26.6259  -34.6518 C   0  0  0  0  0  0  0  0  0  0  0  0
  -12.2216  -26.4802  -36.1132 C   0  0  0  0  0  0  0  0  0  0  0  0
  -15.1197  -23.3706  -38.7152 C   0  0  0  0  0  0  0  0  0  0  0  0
  -12.6895  -25.2048  -36.6607 N   0  0  0  0  0  0  0  0  0  0  0  0
  -14.0261  -23.7699  -37.8609 N   0  0  0  0  0  0  0  0  0  0  0  0
  -14.5104  -26.0390  -37.8353 O   0  0  0  0  0  0  0  0  0  0  0  0
  -10.0984  -26.7507  -33.4614 H   0  0  0  0  0  0  0  0  0  0  0  0
   -9.9474  -25.0116  -33.2200 H   0  0  0  0  0  0  0  0  0  0  0  0
  -10.1414  -24.5816  -35.6178 H   0  0  0  0  0  0  0  0  0  0  0  0
   -8.8866  -25.7900  -35.3522 H   0  0  0  0  0  0  0  0  0  0  0  0
  -12.2379  -25.8697  -32.6774 H   0  0  0  0  0  0  0  0  0  0  0  0
  -12.2542  -24.6324  -33.9317 H   0  0  0  0  0  0  0  0  0  0  0  0
  -10.3840  -26.3809  -37.2670 H   0  0  0  0  0  0  0  0  0  0  0  0
  -10.3681  -27.6096  -36.0101 H   0  0  0  0  0  0  0  0  0  0  0  0
  -12.4973  -27.6610  -34.3102 H   0  0  0  0  0  0  0  0  0  0  0  0
  -13.7556  -26.4626  -34.5754 H   0  0  0  0  0  0  0  0  0  0  0  0
  -12.6855  -27.2555  -36.7176 H   0  0  0  0  0  0  0  0  0  0  0  0
  -15.0600  -22.2997  -38.9260 H   0  0  0  0  0  0  0  0  0  0  0  0
  -16.0759  -23.5806  -38.2281 H   0  0  0  0  0  0  0  0  0  0  0  0
  -15.0803  -23.9182  -39.6606 H   0  0  0  0  0  0  0  0  0  0  0  0
  -12.1740  -24.3612  -36.4281 H   0  0  0  0  0  0  0  0  0  0  0  0
  -13.4199  -23.0477  -37.4850 H   0  0  0  0  0  0  0  0  0  0  0  0
  1  9  1  0  0  0  0
  1 10  1  0  0  0  0
  1 11  2  0  0  0  0
  2  3  1  0  0  0  0
  2  4  1  0  0  0  0
  3  5  1  0  0  0  0
  4  6  1  0  0  0  0
  5  7  1  0  0  0  0
  6  7  1  0  0  0  0
  7  9  1  0  0  0  0
  8 10  1  0  0  0  0
  2 12  1  0  0  0  0
  2 13  1  0  0  0  0
  3 14  1  0  0  0  0
  3 15  1  0  0  0  0
  4 16  1  0  0  0  0
  4 17  1  0  0  0  0
  5 18  1  0  0  0  0
  5 19  1  0  0  0  0
  6 20  1  0  0  0  0
  6 21  1  0  0  0  0
  7 22  1  0  0  0  0
  8 23  1  0  0  0  0
  8 24  1  0  0  0  0
  8 25  1  0  0  0  0
  9 26  1  0  0  0  0
 10 27  1  0  0  0  0
M  END
> <Name>
IA_107.cdx

> <SourceTag>
IA_107

> <Gold.Version>
5.2

> <Gold.Id.Protein>
6HGV|6HGV_protein|mol2

> <Gold.Goldscore.Fitness>
41.1137

> <Gold.Goldscore.Internal.Vdw>
-1.3746

> <Gold.Goldscore.Internal.Torsion>
-1.1880

> <Gold.Goldscore.External.Vdw>
26.2037

> <Gold.Goldscore.Internal.HBond>
0.0000

> <Gold.Goldscore.External.HBond>
5.6503

> <Gold.Goldscore.Internal.Correction>
-1.9959

> <Gold.Goldscore.Hbonds>
donor molecule, donor type, donor heavy atom, donor atom, acceptor molecule, acceptor atom, score
      P1  H  1247  3847       L1    11  0.80
      L1  H     9    26       P1   854  0.01
      L1  H    10    27       P1   854  0.66

> <Gold.Goldscore.Internal.Vdw.Weighted>
-1.3746

> <Gold.Goldscore.Internal.Torsion.Weighted>
-1.1880

> <Gold.Goldscore.External.Vdw.Weighted>
36.0300

> <Gold.Goldscore.Internal.HBond.Weighted>
0.0000

> <Gold.Goldscore.External.HBond.Weighted>
5.6503

> <Gold.Goldscore.Internal.Correction.Weighted>
-1.9959

> <Gold.Protein.RotatedTorsions>
[ 3781 1176 1175 1172 ] final  147.46 input   60.00 | X-H torsion
[ 3847 1247 1246 1244 ] final -159.37 input   60.00 | X-H torsion
[ 4507 1931 1930 1928 ] final  149.95 input   60.00 | X-H torsion
[ 3677 1070 1069 1066 ] final -129.82 input   60.00 | X-H torsion
[ 3525  925  924  922 ] final   95.85 input   59.99 | X-H torsion
[ 4531 1957 1955 1953 ] final -145.55 input   60.00 | X-H torsion

> <Gold.Protein.ActiveResidues>
 PHE267  PRO268  MET310  ASP335  TRP336  MET339  TYR343  THR360  PRO361  ILE363
 PRO371  SER374  ILE375  ASN378  PHE381  TYR383  GLN384  PHE387  LEU408  LEU417
 MET419  LEU428  TYR466  MET469  ASN472  ASP496  VAL498  LEU499  MET503  HIS524
 TRP525

> <Gold.Protein.RotatedAtoms>
   -2.3268  -30.0845  -30.6420 H   0  0  0  0  0  0  0  0  0  0  0  0  # atno 3525 bound_to 925
  -11.3490  -23.4666  -31.4429 H   0  0  0  0  0  0  0  0  0  0  0  0  # atno 3677 bound_to 1070
   -9.5073  -36.8146  -32.4953 H   0  0  0  0  0  0  0  0  0  0  0  0  # atno 3781 bound_to 1176
  -14.9520  -27.2685  -37.9068 H   0  0  0  0  0  0  0  0  0  0  0  0  # atno 3847 bound_to 1247
  -12.5951  -23.7833  -39.7914 H   0  0  0  0  0  0  0  0  0  0  0  0  # atno 4507 bound_to 1931
   -1.2684  -33.2599  -37.0041 H   0  0  0  0  0  0  0  0  0  0  0  0  # atno 4531 bound_to 1957
  -10.8201  -37.4024  -33.2562 LP  0  0  0  0  0  0  0  0  0  0  0  0  # atno 5205 bound_to 1176
   -9.7870  -36.4165  -34.0482 LP  0  0  0  0  0  0  0  0  0  0  0  0  # atno 5206 bound_to 1176
  -14.5688  -28.7892  -37.4728 LP  0  0  0  0  0  0  0  0  0  0  0  0  # atno 5215 bound_to 1247
  -16.0453  -28.1852  -37.1243 LP  0  0  0  0  0  0  0  0  0  0  0  0  # atno 5216 bound_to 1247
  -12.9313  -25.0557  -38.8343 LP  0  0  0  0  0  0  0  0  0  0  0  0  # atno 5217 bound_to 1931
  -13.6717  -24.9007  -40.2815 LP  0  0  0  0  0  0  0  0  0  0  0  0  # atno 5218 bound_to 1931
  -11.7176  -22.1725  -30.5276 LP  0  0  0  0  0  0  0  0  0  0  0  0  # atno 5224 bound_to 1070
  -12.7917  -23.3912  -30.6936 LP  0  0  0  0  0  0  0  0  0  0  0  0  # atno 5225 bound_to 1070

$$$$
IA_107.cdx|SeH_inactivess_minimized|sdf|9|dock10
  -GOLD-   4172118443D 1   1.00000     0.00000

 27 27  0  0  0  0  0  0  0  0  1 V2000
  -14.3342  -25.4325  -36.4538 C   0  0  0  0  0  0  0  0  0  0  0  0
  -10.0222  -26.7405  -34.1831 C   0  0  0  0  0  0  0  0  0  0  0  0
  -10.7662  -25.4345  -33.9173 C   0  0  0  0  0  0  0  0  0  0  0  0
  -10.7679  -27.6292  -35.1749 C   0  0  0  0  0  0  0  0  0  0  0  0
  -11.0833  -24.6931  -35.2167 C   0  0  0  0  0  0  0  0  0  0  0  0
  -11.0847  -26.8827  -36.4715 C   0  0  0  0  0  0  0  0  0  0  0  0
  -11.8339  -25.5651  -36.2320 C   0  0  0  0  0  0  0  0  0  0  0  0
  -16.8173  -25.5263  -36.2829 C   0  0  0  0  0  0  0  0  0  0  0  0
  -13.1945  -25.8339  -35.7613 N   0  0  0  0  0  0  0  0  0  0  0  0
  -15.4936  -25.8163  -35.7844 N   0  0  0  0  0  0  0  0  0  0  0  0
  -14.3204  -24.8185  -37.5199 O   0  0  0  0  0  0  0  0  0  0  0  0
   -9.0184  -26.5213  -34.5670 H   0  0  0  0  0  0  0  0  0  0  0  0
   -9.8891  -27.2825  -33.2374 H   0  0  0  0  0  0  0  0  0  0  0  0
  -11.6958  -25.6429  -33.3768 H   0  0  0  0  0  0  0  0  0  0  0  0
  -10.1566  -24.7915  -33.2712 H   0  0  0  0  0  0  0  0  0  0  0  0
  -10.1601  -28.5128  -35.4030 H   0  0  0  0  0  0  0  0  0  0  0  0
  -11.6979  -27.9885  -34.7211 H   0  0  0  0  0  0  0  0  0  0  0  0
  -11.6788  -23.7923  -34.9865 H   0  0  0  0  0  0  0  0  0  0  0  0
  -10.1451  -24.3219  -35.6625 H   0  0  0  0  0  0  0  0  0  0  0  0
  -10.1465  -26.6863  -37.0174 H   0  0  0  0  0  0  0  0  0  0  0  0
  -11.6810  -27.5360  -37.1322 H   0  0  0  0  0  0  0  0  0  0  0  0
  -11.9408  -25.0272  -37.1705 H   0  0  0  0  0  0  0  0  0  0  0  0
  -17.5346  -25.5122  -35.4583 H   0  0  0  0  0  0  0  0  0  0  0  0
  -17.1250  -26.2886  -37.0040 H   0  0  0  0  0  0  0  0  0  0  0  0
  -16.8299  -24.5511  -36.7771 H   0  0  0  0  0  0  0  0  0  0  0  0
  -13.3126  -26.3376  -34.8873 H   0  0  0  0  0  0  0  0  0  0  0  0
  -15.4083  -26.3614  -34.9323 H   0  0  0  0  0  0  0  0  0  0  0  0
  1  9  1  0  0  0  0
  1 10  1  0  0  0  0
  1 11  2  0  0  0  0
  2  3  1  0  0  0  0
  2  4  1  0  0  0  0
  3  5  1  0  0  0  0
  4  6  1  0  0  0  0
  5  7  1  0  0  0  0
  6  7  1  0  0  0  0
  7  9  1  0  0  0  0
  8 10  1  0  0  0  0
  2 12  1  0  0  0  0
  2 13  1  0  0  0  0
  3 14  1  0  0  0  0
  3 15  1  0  0  0  0
  4 16  1  0  0  0  0
  4 17  1  0  0  0  0
  5 18  1  0  0  0  0
  5 19  1  0  0  0  0
  6 20  1  0  0  0  0
  6 21  1  0  0  0  0
  7 22  1  0  0  0  0
  8 23  1  0  0  0  0
  8 24  1  0  0  0  0
  8 25  1  0  0  0  0
  9 26  1  0  0  0  0
 10 27  1  0  0  0  0
M  END
> <Name>
IA_107.cdx

> <SourceTag>
IA_107

> <Gold.Version>
5.2

> <Gold.Id.Protein>
6HGV|6HGV_protein|mol2

> <Gold.Goldscore.Fitness>
40.9290

> <Gold.Goldscore.Internal.Vdw>
-1.3823

> <Gold.Goldscore.Internal.Torsion>
-1.1543

> <Gold.Goldscore.External.Vdw>
30.0661

> <Gold.Goldscore.Internal.HBond>
0.0000

> <Gold.Goldscore.External.HBond>
0.1287

> <Gold.Goldscore.Internal.Correction>
-1.9959

> <Gold.Goldscore.Hbonds>
donor molecule, donor type, donor heavy atom, donor atom, acceptor molecule, acceptor atom, score
      P1  H  1931  4507       L1    11  0.06

> <Gold.Goldscore.Internal.Vdw.Weighted>
-1.3823

> <Gold.Goldscore.Internal.Torsion.Weighted>
-1.1543

> <Gold.Goldscore.External.Vdw.Weighted>
41.3409

> <Gold.Goldscore.Internal.HBond.Weighted>
0.0000

> <Gold.Goldscore.External.HBond.Weighted>
0.1287

> <Gold.Goldscore.Internal.Correction.Weighted>
-1.9959

> <Gold.Protein.RotatedTorsions>
[ 3781 1176 1175 1172 ] final  122.91 input   60.00 | X-H torsion
[ 3847 1247 1246 1244 ] final  147.69 input   60.00 | X-H torsion
[ 4507 1931 1930 1928 ] final   -0.85 input   60.00 | X-H torsion
[ 3677 1070 1069 1066 ] final  -67.99 input   60.00 | X-H torsion
[ 3525  925  924  922 ] final   -7.96 input   59.99 | X-H torsion
[ 4531 1957 1955 1953 ] final -176.64 input   60.00 | X-H torsion

> <Gold.Protein.ActiveResidues>
 PHE267  PRO268  MET310  ASP335  TRP336  MET339  TYR343  THR360  PRO361  ILE363
 PRO371  SER374  ILE375  ASN378  PHE381  TYR383  GLN384  PHE387  LEU408  LEU417
 MET419  LEU428  TYR466  MET469  ASN472  ASP496  VAL498  LEU499  MET503  HIS524
 TRP525

> <Gold.Protein.RotatedAtoms>
   -3.6626  -29.5275  -30.3650 H   0  0  0  0  0  0  0  0  0  0  0  0  # atno 3525 bound_to 925
  -12.2095  -23.8425  -31.2339 H   0  0  0  0  0  0  0  0  0  0  0  0  # atno 3677 bound_to 1070
   -9.8013  -37.0553  -32.3763 H   0  0  0  0  0  0  0  0  0  0  0  0  # atno 3781 bound_to 1176
  -14.3705  -27.8671  -37.9061 H   0  0  0  0  0  0  0  0  0  0  0  0  # atno 3847 bound_to 1247
  -13.2658  -25.3166  -39.0969 H   0  0  0  0  0  0  0  0  0  0  0  0  # atno 4507 bound_to 1931
   -1.4660  -33.7203  -36.9745 H   0  0  0  0  0  0  0  0  0  0  0  0  # atno 4531 bound_to 1957
  -10.8170  -37.2600  -33.6310 LP  0  0  0  0  0  0  0  0  0  0  0  0  # atno 5205 bound_to 1176
   -9.4941  -36.3166  -33.7933 LP  0  0  0  0  0  0  0  0  0  0  0  0  # atno 5206 bound_to 1176
  -15.3196  -28.9323  -37.1234 LP  0  0  0  0  0  0  0  0  0  0  0  0  # atno 5215 bound_to 1247
  -15.8801  -27.4392  -37.4746 LP  0  0  0  0  0  0  0  0  0  0  0  0  # atno 5216 bound_to 1247
  -13.4864  -24.4771  -40.4734 LP  0  0  0  0  0  0  0  0  0  0  0  0  # atno 5217 bound_to 1931
  -12.4412  -23.9352  -39.3417 LP  0  0  0  0  0  0  0  0  0  0  0  0  # atno 5218 bound_to 1931
  -11.1052  -22.6544  -31.1032 LP  0  0  0  0  0  0  0  0  0  0  0  0  # atno 5224 bound_to 1070
  -12.5375  -22.5307  -30.3285 LP  0  0  0  0  0  0  0  0  0  0  0  0  # atno 5225 bound_to 1070

$$$$
IA_107.cdx|SeH_inactivess_minimized|sdf|9|dock8
  -GOLD-   4172118443D 1   1.00000     0.00000

 27 27  0  0  0  0  0  0  0  0  1 V2000
  -14.5863  -26.3846  -35.6156 C   0  0  0  0  0  0  0  0  0  0  0  0
  -10.1722  -25.9945  -33.7278 C   0  0  0  0  0  0  0  0  0  0  0  0
  -10.3563  -25.2017  -35.0191 C   0  0  0  0  0  0  0  0  0  0  0  0
  -11.4374  -26.7559  -33.3415 C   0  0  0  0  0  0  0  0  0  0  0  0
  -10.8538  -26.0911  -36.1593 C   0  0  0  0  0  0  0  0  0  0  0  0
  -11.9322  -27.6419  -34.4857 C   0  0  0  0  0  0  0  0  0  0  0  0
  -12.1263  -26.8682  -35.7966 C   0  0  0  0  0  0  0  0  0  0  0  0
  -16.8963  -25.4729  -35.4250 C   0  0  0  0  0  0  0  0  0  0  0  0
  -13.2638  -25.9529  -35.6814 N   0  0  0  0  0  0  0  0  0  0  0  0
  -15.4643  -25.3087  -35.5099 N   0  0  0  0  0  0  0  0  0  0  0  0
  -14.9356  -27.5639  -35.6463 O   0  0  0  0  0  0  0  0  0  0  0  0
   -9.3390  -26.6985  -33.8431 H   0  0  0  0  0  0  0  0  0  0  0  0
   -9.8980  -25.3084  -32.9154 H   0  0  0  0  0  0  0  0  0  0  0  0
  -11.0674  -24.3853  -34.8526 H   0  0  0  0  0  0  0  0  0  0  0  0
   -9.4023  -24.7429  -35.3054 H   0  0  0  0  0  0  0  0  0  0  0  0
  -11.2358  -27.3775  -32.4611 H   0  0  0  0  0  0  0  0  0  0  0  0
  -12.2231  -26.0466  -33.0598 H   0  0  0  0  0  0  0  0  0  0  0  0
  -11.0386  -25.4692  -37.0527 H   0  0  0  0  0  0  0  0  0  0  0  0
  -10.0546  -26.7943  -36.4480 H   0  0  0  0  0  0  0  0  0  0  0  0
  -11.2188  -28.4689  -34.6408 H   0  0  0  0  0  0  0  0  0  0  0  0
  -12.8822  -28.1211  -34.1913 H   0  0  0  0  0  0  0  0  0  0  0  0
  -12.3759  -27.5593  -36.5977 H   0  0  0  0  0  0  0  0  0  0  0  0
  -17.1957  -25.6280  -34.3852 H   0  0  0  0  0  0  0  0  0  0  0  0
  -17.2133  -26.3372  -36.0151 H   0  0  0  0  0  0  0  0  0  0  0  0
  -17.4023  -24.5826  -35.8079 H   0  0  0  0  0  0  0  0  0  0  0  0
  -13.0792  -24.9548  -35.6478 H   0  0  0  0  0  0  0  0  0  0  0  0
  -15.0822  -24.3705  -35.4452 H   0  0  0  0  0  0  0  0  0  0  0  0
  1  9  1  0  0  0  0
  1 10  1  0  0  0  0
  1 11  2  0  0  0  0
  2  3  1  0  0  0  0
  2  4  1  0  0  0  0
  3  5  1  0  0  0  0
  4  6  1  0  0  0  0
  5  7  1  0  0  0  0
  6  7  1  0  0  0  0
  7  9  1  0  0  0  0
  8 10  1  0  0  0  0
  2 12  1  0  0  0  0
  2 13  1  0  0  0  0
  3 14  1  0  0  0  0
  3 15  1  0  0  0  0
  4 16  1  0  0  0  0
  4 17  1  0  0  0  0
  5 18  1  0  0  0  0
  5 19  1  0  0  0  0
  6 20  1  0  0  0  0
  6 21  1  0  0  0  0
  7 22  1  0  0  0  0
  8 23  1  0  0  0  0
  8 24  1  0  0  0  0
  8 25  1  0  0  0  0
  9 26  1  0  0  0  0
 10 27  1  0  0  0  0
M  END
> <Name>
IA_107.cdx

> <SourceTag>
IA_107

> <Gold.Version>
5.2

> <Gold.Id.Protein>
6HGV|6HGV_protein|mol2

> <Gold.Goldscore.Fitness>
40.8169

> <Gold.Goldscore.Internal.Vdw>
-0.9037

> <Gold.Goldscore.Internal.Torsion>
-1.1535

> <Gold.Goldscore.External.Vdw>
26.7573

> <Gold.Goldscore.Internal.HBond>
0.0000

> <Gold.Goldscore.External.HBond>
4.0869

> <Gold.Goldscore.Internal.Correction>
-1.9959

> <Gold.Goldscore.Hbonds>
donor molecule, donor type, donor heavy atom, donor atom, acceptor molecule, acceptor atom, score
      L1  H     9    26       P1   853  0.13
      L1  H    10    27       P1   853  0.55

> <Gold.Goldscore.Internal.Vdw.Weighted>
-0.9037

> <Gold.Goldscore.Internal.Torsion.Weighted>
-1.1535

> <Gold.Goldscore.External.Vdw.Weighted>
36.7913

> <Gold.Goldscore.Internal.HBond.Weighted>
0.0000

> <Gold.Goldscore.External.HBond.Weighted>
4.0869

> <Gold.Goldscore.Internal.Correction.Weighted>
-1.9959

> <Gold.Protein.RotatedTorsions>
[ 3781 1176 1175 1172 ] final  -27.87 input   60.00 | X-H torsion
[ 3847 1247 1246 1244 ] final -177.41 input   60.00 | X-H torsion
[ 4507 1931 1930 1928 ] final   15.91 input   60.00 | X-H torsion
[ 3677 1070 1069 1066 ] final -103.97 input   60.00 | X-H torsion
[ 3525  925  924  922 ] final -101.39 input   59.99 | X-H torsion
[ 4531 1957 1955 1953 ] final   40.63 input   60.00 | X-H torsion

> <Gold.Protein.ActiveResidues>
 PHE267  PRO268  MET310  ASP335  TRP336  MET339  TYR343  THR360  PRO361  ILE363
 PRO371  SER374  ILE375  ASN378  PHE381  TYR383  GLN384  PHE387  LEU408  LEU417
 MET419  LEU428  TYR466  MET469  ASN472  ASP496  VAL498  LEU499  MET503  HIS524
 TRP525

> <Gold.Protein.RotatedAtoms>
   -3.2885  -29.8077  -29.0845 H   0  0  0  0  0  0  0  0  0  0  0  0  # atno 3525 bound_to 925
  -11.6778  -23.7258  -31.4288 H   0  0  0  0  0  0  0  0  0  0  0  0  # atno 3677 bound_to 1070
  -10.6112  -36.9891  -33.9957 H   0  0  0  0  0  0  0  0  0  0  0  0  # atno 3781 bound_to 1176
  -14.7015  -27.4156  -37.9489 H   0  0  0  0  0  0  0  0  0  0  0  0  # atno 3847 bound_to 1247
  -13.0845  -25.1957  -38.9329 H   0  0  0  0  0  0  0  0  0  0  0  0  # atno 4507 bound_to 1931
   -3.0984  -33.1033  -36.6535 H   0  0  0  0  0  0  0  0  0  0  0  0  # atno 4531 bound_to 1957
   -9.2704  -36.3348  -33.3460 LP  0  0  0  0  0  0  0  0  0  0  0  0  # atno 5205 bound_to 1176
  -10.2251  -37.3084  -32.4475 LP  0  0  0  0  0  0  0  0  0  0  0  0  # atno 5206 bound_to 1176
  -14.7951  -28.9194  -37.3342 LP  0  0  0  0  0  0  0  0  0  0  0  0  # atno 5215 bound_to 1247
  -16.0713  -27.9068  -37.2206 LP  0  0  0  0  0  0  0  0  0  0  0  0  # atno 5216 bound_to 1247
  -13.6063  -24.7119  -40.3963 LP  0  0  0  0  0  0  0  0  0  0  0  0  # atno 5217 bound_to 1931
  -12.5039  -23.8221  -39.5841 LP  0  0  0  0  0  0  0  0  0  0  0  0  # atno 5218 bound_to 1931
  -11.3770  -22.2759  -30.7540 LP  0  0  0  0  0  0  0  0  0  0  0  0  # atno 5224 bound_to 1070
  -12.8012  -23.0268  -30.4814 LP  0  0  0  0  0  0  0  0  0  0  0  0  # atno 5225 bound_to 1070

$$$$
IA_107.cdx|SeH_inactivess_minimized|sdf|9|dock1
  -GOLD-   4172118443D 1   1.00000     0.00000

 27 27  0  0  0  0  0  0  0  0  1 V2000
  -14.4741  -26.4250  -35.6496 C   0  0  0  0  0  0  0  0  0  0  0  0
  -10.1340  -26.0563  -33.6144 C   0  0  0  0  0  0  0  0  0  0  0  0
  -10.2690  -25.2517  -34.9044 C   0  0  0  0  0  0  0  0  0  0  0  0
  -11.4134  -26.8197  -33.2827 C   0  0  0  0  0  0  0  0  0  0  0  0
  -10.7243  -26.1301  -36.0705 C   0  0  0  0  0  0  0  0  0  0  0  0
  -11.8658  -27.6947  -34.4525 C   0  0  0  0  0  0  0  0  0  0  0  0
  -12.0101  -26.9090  -35.7627 C   0  0  0  0  0  0  0  0  0  0  0  0
  -16.7885  -25.5130  -35.5245 C   0  0  0  0  0  0  0  0  0  0  0  0
  -13.1504  -25.9934  -35.6818 N   0  0  0  0  0  0  0  0  0  0  0  0
  -15.3546  -25.3489  -35.5719 N   0  0  0  0  0  0  0  0  0  0  0  0
  -14.8223  -27.6045  -35.6845 O   0  0  0  0  0  0  0  0  0  0  0  0
   -9.2977  -26.7602  -33.7049 H   0  0  0  0  0  0  0  0  0  0  0  0
   -9.8898  -25.3780  -32.7861 H   0  0  0  0  0  0  0  0  0  0  0  0
  -10.9851  -24.4360  -34.7572 H   0  0  0  0  0  0  0  0  0  0  0  0
   -9.3046  -24.7914  -35.1508 H   0  0  0  0  0  0  0  0  0  0  0  0
  -11.2453  -27.4495  -32.4010 H   0  0  0  0  0  0  0  0  0  0  0  0
  -12.2084  -26.1120  -33.0241 H   0  0  0  0  0  0  0  0  0  0  0  0
  -10.8750  -25.4999  -36.9645 H   0  0  0  0  0  0  0  0  0  0  0  0
   -9.9154  -26.8316  -36.3355 H   0  0  0  0  0  0  0  0  0  0  0  0
  -11.1478  -28.5211  -34.5884 H   0  0  0  0  0  0  0  0  0  0  0  0
  -12.8266  -28.1754  -34.1982 H   0  0  0  0  0  0  0  0  0  0  0  0
  -12.2301  -27.5924  -36.5789 H   0  0  0  0  0  0  0  0  0  0  0  0
  -17.1008  -26.2918  -36.2249 H   0  0  0  0  0  0  0  0  0  0  0  0
  -17.2851  -24.5770  -35.7947 H   0  0  0  0  0  0  0  0  0  0  0  0
  -17.1032  -25.7986  -34.5172 H   0  0  0  0  0  0  0  0  0  0  0  0
  -12.9668  -24.9951  -35.6475 H   0  0  0  0  0  0  0  0  0  0  0  0
  -14.9745  -24.4103  -35.5009 H   0  0  0  0  0  0  0  0  0  0  0  0
  1  9  1  0  0  0  0
  1 10  1  0  0  0  0
  1 11  2  0  0  0  0
  2  3  1  0  0  0  0
  2  4  1  0  0  0  0
  3  5  1  0  0  0  0
  4  6  1  0  0  0  0
  5  7  1  0  0  0  0
  6  7  1  0  0  0  0
  7  9  1  0  0  0  0
  8 10  1  0  0  0  0
  2 12  1  0  0  0  0
  2 13  1  0  0  0  0
  3 14  1  0  0  0  0
  3 15  1  0  0  0  0
  4 16  1  0  0  0  0
  4 17  1  0  0  0  0
  5 18  1  0  0  0  0
  5 19  1  0  0  0  0
  6 20  1  0  0  0  0
  6 21  1  0  0  0  0
  7 22  1  0  0  0  0
  8 23  1  0  0  0  0
  8 24  1  0  0  0  0
  8 25  1  0  0  0  0
  9 26  1  0  0  0  0
 10 27  1  0  0  0  0
M  END
> <Name>
IA_107.cdx

> <SourceTag>
IA_107

> <Gold.Version>
5.2

> <Gold.Id.Protein>
6HGV|6HGV_protein|mol2

> <Gold.Goldscore.Fitness>
40.7419

> <Gold.Goldscore.Internal.Vdw>
-0.8544

> <Gold.Goldscore.Internal.Torsion>
-1.1593

> <Gold.Goldscore.External.Vdw>
26.6778

> <Gold.Goldscore.Internal.HBond>
0.0000

> <Gold.Goldscore.External.HBond>
4.0774

> <Gold.Goldscore.Internal.Correction>
-1.9963

> <Gold.Goldscore.Hbonds>
donor molecule, donor type, donor heavy atom, donor atom, acceptor molecule, acceptor atom, score
      L1  H     9    26       P1   853  0.09
      L1  H    10    27       P1   853  0.59

> <Gold.Goldscore.Internal.Vdw.Weighted>
-0.8544

> <Gold.Goldscore.Internal.Torsion.Weighted>
-1.1593

> <Gold.Goldscore.External.Vdw.Weighted>
36.6819

> <Gold.Goldscore.Internal.HBond.Weighted>
0.0000

> <Gold.Goldscore.External.HBond.Weighted>
4.0774

> <Gold.Goldscore.Internal.Correction.Weighted>
-1.9963

> <Gold.Protein.RotatedTorsions>
[ 3781 1176 1175 1172 ] final  125.57 input   60.00 | X-H torsion
[ 3847 1247 1246 1244 ] final  139.14 input   60.00 | X-H torsion
[ 4507 1931 1930 1928 ] final   33.00 input   60.00 | X-H torsion
[ 3677 1070 1069 1066 ] final -106.92 input   60.00 | X-H torsion
[ 3525  925  924  922 ] final  123.44 input   59.99 | X-H torsion
[ 4531 1957 1955 1953 ] final  -89.23 input   60.00 | X-H torsion

> <Gold.Protein.ActiveResidues>
 PHE267  PRO268  MET310  ASP335  TRP336  MET339  TYR343  THR360  PRO361  ILE363
 PRO371  SER374  ILE375  ASN378  PHE381  TYR383  GLN384  PHE387  LEU408  LEU417
 MET419  LEU428  TYR466  MET469  ASN472  ASP496  VAL498  LEU499  MET503  HIS524
 TRP525

> <Gold.Protein.RotatedAtoms>
   -2.1032  -30.2152  -30.2783 H   0  0  0  0  0  0  0  0  0  0  0  0  # atno 3525 bound_to 925
  -11.6361  -23.7027  -31.4362 H   0  0  0  0  0  0  0  0  0  0  0  0  # atno 3677 bound_to 1070
   -9.7664  -37.0300  -32.3816 H   0  0  0  0  0  0  0  0  0  0  0  0  # atno 3781 bound_to 1176
  -14.3318  -27.9968  -37.8716 H   0  0  0  0  0  0  0  0  0  0  0  0  # atno 3847 bound_to 1247
  -12.8978  -25.0186  -38.8271 H   0  0  0  0  0  0  0  0  0  0  0  0  # atno 4507 bound_to 1931
   -1.5665  -32.4310  -36.9332 H   0  0  0  0  0  0  0  0  0  0  0  0  # atno 4531 bound_to 1957
  -10.8244  -37.2793  -33.5925 LP  0  0  0  0  0  0  0  0  0  0  0  0  # atno 5205 bound_to 1176
   -9.5219  -36.3227  -33.8265 LP  0  0  0  0  0  0  0  0  0  0  0  0  # atno 5206 bound_to 1176
  -15.4484  -28.8862  -37.0904 LP  0  0  0  0  0  0  0  0  0  0  0  0  # atno 5215 bound_to 1247
  -15.7903  -27.3547  -37.5421 LP  0  0  0  0  0  0  0  0  0  0  0  0  # atno 5216 bound_to 1247
  -13.6812  -24.9396  -40.2512 LP  0  0  0  0  0  0  0  0  0  0  0  0  # atno 5217 bound_to 1931
  -12.6169  -23.7729  -39.8357 LP  0  0  0  0  0  0  0  0  0  0  0  0  # atno 5218 bound_to 1931
  -11.4112  -22.2560  -30.7258 LP  0  0  0  0  0  0  0  0  0  0  0  0  # atno 5224 bound_to 1070
  -12.8090  -23.0700  -30.5022 LP  0  0  0  0  0  0  0  0  0  0  0  0  # atno 5225 bound_to 1070

$$$$
IA_107.cdx|SeH_inactivess_minimized|sdf|9|dock3
  -GOLD-   4172118443D 1   1.00000     0.00000

 27 27  0  0  0  0  0  0  0  0  1 V2000
  -14.1902  -25.4968  -36.5198 C   0  0  0  0  0  0  0  0  0  0  0  0
  -10.0178  -26.8486  -34.0458 C   0  0  0  0  0  0  0  0  0  0  0  0
  -10.7124  -25.5161  -33.7780 C   0  0  0  0  0  0  0  0  0  0  0  0
  -10.7686  -27.6849  -35.0787 C   0  0  0  0  0  0  0  0  0  0  0  0
  -10.9538  -24.7374  -35.0718 C   0  0  0  0  0  0  0  0  0  0  0  0
  -11.0096  -26.9011  -36.3695 C   0  0  0  0  0  0  0  0  0  0  0  0
  -11.7080  -25.5562  -36.1279 C   0  0  0  0  0  0  0  0  0  0  0  0
  -16.6785  -25.6027  -36.4892 C   0  0  0  0  0  0  0  0  0  0  0  0
  -13.0938  -25.7732  -35.7066 N   0  0  0  0  0  0  0  0  0  0  0  0
  -15.3869  -25.7948  -35.8728 N   0  0  0  0  0  0  0  0  0  0  0  0
  -14.1131  -25.0479  -37.6627 O   0  0  0  0  0  0  0  0  0  0  0  0
   -8.9933  -26.6670  -34.3929 H   0  0  0  0  0  0  0  0  0  0  0  0
   -9.9397  -27.4135  -33.1074 H   0  0  0  0  0  0  0  0  0  0  0  0
  -11.6675  -25.6931  -33.2719 H   0  0  0  0  0  0  0  0  0  0  0  0
  -10.0969  -24.9128  -33.1000 H   0  0  0  0  0  0  0  0  0  0  0  0
  -10.1927  -28.5901  -35.3048 H   0  0  0  0  0  0  0  0  0  0  0  0
  -11.7278  -28.0110  -34.6622 H   0  0  0  0  0  0  0  0  0  0  0  0
  -11.5167  -23.8155  -34.8429 H   0  0  0  0  0  0  0  0  0  0  0  0
   -9.9861  -24.3999  -35.4798 H   0  0  0  0  0  0  0  0  0  0  0  0
  -10.0462  -26.7364  -36.8810 H   0  0  0  0  0  0  0  0  0  0  0  0
  -11.6117  -27.5149  -37.0620 H   0  0  0  0  0  0  0  0  0  0  0  0
  -11.7603  -24.9968  -37.0585 H   0  0  0  0  0  0  0  0  0  0  0  0
  -16.8697  -26.3962  -37.2161 H   0  0  0  0  0  0  0  0  0  0  0  0
  -16.7119  -24.6385  -37.0039 H   0  0  0  0  0  0  0  0  0  0  0  0
  -17.4659  -25.6226  -35.7309 H   0  0  0  0  0  0  0  0  0  0  0  0
  -13.2635  -26.1433  -34.7762 H   0  0  0  0  0  0  0  0  0  0  0  0
  -15.3520  -26.2060  -34.9453 H   0  0  0  0  0  0  0  0  0  0  0  0
  1  9  1  0  0  0  0
  1 10  1  0  0  0  0
  1 11  2  0  0  0  0
  2  3  1  0  0  0  0
  2  4  1  0  0  0  0
  3  5  1  0  0  0  0
  4  6  1  0  0  0  0
  5  7  1  0  0  0  0
  6  7  1  0  0  0  0
  7  9  1  0  0  0  0
  8 10  1  0  0  0  0
  2 12  1  0  0  0  0
  2 13  1  0  0  0  0
  3 14  1  0  0  0  0
  3 15  1  0  0  0  0
  4 16  1  0  0  0  0
  4 17  1  0  0  0  0
  5 18  1  0  0  0  0
  5 19  1  0  0  0  0
  6 20  1  0  0  0  0
  6 21  1  0  0  0  0
  7 22  1  0  0  0  0
  8 23  1  0  0  0  0
  8 24  1  0  0  0  0
  8 25  1  0  0  0  0
  9 26  1  0  0  0  0
 10 27  1  0  0  0  0
M  END
> <Name>
IA_107.cdx

> <SourceTag>
IA_107

> <Gold.Version>
5.2

> <Gold.Id.Protein>
6HGV|6HGV_protein|mol2

> <Gold.Goldscore.Fitness>
40.6063

> <Gold.Goldscore.Internal.Vdw>
-1.3508

> <Gold.Goldscore.Internal.Torsion>
-1.1627

> <Gold.Goldscore.External.Vdw>
29.5313

> <Gold.Goldscore.Internal.HBond>
0.0000

> <Gold.Goldscore.External.HBond>
0.5184

> <Gold.Goldscore.Internal.Correction>
-1.9959

> <Gold.Goldscore.Hbonds>
donor molecule, donor type, donor heavy atom, donor atom, acceptor molecule, acceptor atom, score
      P1  H  1931  4507       L1    11  0.26

> <Gold.Goldscore.Internal.Vdw.Weighted>
-1.3508

> <Gold.Goldscore.Internal.Torsion.Weighted>
-1.1627

> <Gold.Goldscore.External.Vdw.Weighted>
40.6055

> <Gold.Goldscore.Internal.HBond.Weighted>
0.0000

> <Gold.Goldscore.External.HBond.Weighted>
0.5184

> <Gold.Goldscore.Internal.Correction.Weighted>
-1.9959

> <Gold.Protein.RotatedTorsions>
[ 3781 1176 1175 1172 ] final  144.83 input   60.00 | X-H torsion
[ 3847 1247 1246 1244 ] final  148.88 input   60.00 | X-H torsion
[ 4507 1931 1930 1928 ] final    7.36 input   60.00 | X-H torsion
[ 3677 1070 1069 1066 ] final  -82.61 input   60.00 | X-H torsion
[ 3525  925  924  922 ] final   83.52 input   59.99 | X-H torsion
[ 4531 1957 1955 1953 ] final  176.72 input   60.00 | X-H torsion

> <Gold.Protein.ActiveResidues>
 PHE267  PRO268  MET310  ASP335  TRP336  MET339  TYR343  THR360  PRO361  ILE363
 PRO371  SER374  ILE375  ASN378  PHE381  TYR383  GLN384  PHE387  LEU408  LEU417
 MET419  LEU428  TYR466  MET469  ASN472  ASP496  VAL498  LEU499  MET503  HIS524
 TRP525

> <Gold.Protein.RotatedAtoms>
   -2.4742  -30.0097  -30.7565 H   0  0  0  0  0  0  0  0  0  0  0  0  # atno 3525 bound_to 925
  -11.9939  -23.8335  -31.3348 H   0  0  0  0  0  0  0  0  0  0  0  0  # atno 3677 bound_to 1070
   -9.5350  -36.8406  -32.4753 H   0  0  0  0  0  0  0  0  0  0  0  0  # atno 3781 bound_to 1176
  -14.3773  -27.8494  -37.9102 H   0  0  0  0  0  0  0  0  0  0  0  0  # atno 3847 bound_to 1247
  -13.1782  -25.2647  -39.0099 H   0  0  0  0  0  0  0  0  0  0  0  0  # atno 4507 bound_to 1931
   -1.5380  -33.8005  -36.9622 H   0  0  0  0  0  0  0  0  0  0  0  0  # atno 4531 bound_to 1957
  -10.8268  -37.3914  -33.2975 LP  0  0  0  0  0  0  0  0  0  0  0  0  # atno 5205 bound_to 1176
   -9.7524  -36.4014  -34.0271 LP  0  0  0  0  0  0  0  0  0  0  0  0  # atno 5206 bound_to 1176
  -15.3015  -28.9372  -37.1286 LP  0  0  0  0  0  0  0  0  0  0  0  0  # atno 5215 bound_to 1247
  -15.8913  -27.4521  -37.4652 LP  0  0  0  0  0  0  0  0  0  0  0  0  # atno 5216 bound_to 1247
  -13.5503  -24.5923  -40.4442 LP  0  0  0  0  0  0  0  0  0  0  0  0  # atno 5217 bound_to 1931
  -12.4655  -23.8723  -39.4586 LP  0  0  0  0  0  0  0  0  0  0  0  0  # atno 5218 bound_to 1931
  -11.1800  -22.4741  -30.9637 LP  0  0  0  0  0  0  0  0  0  0  0  0  # atno 5224 bound_to 1070
  -12.6798  -22.7201  -30.3664 LP  0  0  0  0  0  0  0  0  0  0  0  0  # atno 5225 bound_to 1070

$$$$
IA_107.cdx|SeH_inactivess_minimized|sdf|9|dock6
  -GOLD-   4172118443D 1   1.00000     0.00000

 27 27  0  0  0  0  0  0  0  0  1 V2000
  -14.4450  -26.5142  -35.6154 C   0  0  0  0  0  0  0  0  0  0  0  0
  -10.0509  -25.9936  -33.6329 C   0  0  0  0  0  0  0  0  0  0  0  0
  -10.2541  -25.2046  -34.9237 C   0  0  0  0  0  0  0  0  0  0  0  0
  -11.2931  -26.7953  -33.2538 C   0  0  0  0  0  0  0  0  0  0  0  0
  -10.7182  -26.1072  -36.0677 C   0  0  0  0  0  0  0  0  0  0  0  0
  -11.7545  -27.6943  -34.4016 C   0  0  0  0  0  0  0  0  0  0  0  0
  -11.9671  -26.9248  -35.7121 C   0  0  0  0  0  0  0  0  0  0  0  0
  -16.7855  -25.6729  -35.4805 C   0  0  0  0  0  0  0  0  0  0  0  0
  -13.1335  -26.0461  -35.6005 N   0  0  0  0  0  0  0  0  0  0  0  0
  -15.3562  -25.4680  -35.4936 N   0  0  0  0  0  0  0  0  0  0  0  0
  -14.7598  -27.6988  -35.7218 O   0  0  0  0  0  0  0  0  0  0  0  0
   -9.1954  -26.6707  -33.7457 H   0  0  0  0  0  0  0  0  0  0  0  0
   -9.8021  -25.3007  -32.8182 H   0  0  0  0  0  0  0  0  0  0  0  0
  -10.9913  -24.4114  -34.7591 H   0  0  0  0  0  0  0  0  0  0  0  0
   -9.3138  -24.7154  -35.2050 H   0  0  0  0  0  0  0  0  0  0  0  0
  -11.0759  -27.4118  -32.3735 H   0  0  0  0  0  0  0  0  0  0  0  0
  -12.1020  -26.1116  -32.9744 H   0  0  0  0  0  0  0  0  0  0  0  0
  -10.9185  -25.4898  -36.9609 H   0  0  0  0  0  0  0  0  0  0  0  0
   -9.8958  -26.7843  -36.3540 H   0  0  0  0  0  0  0  0  0  0  0  0
  -11.0147  -28.4981  -34.5549 H   0  0  0  0  0  0  0  0  0  0  0  0
  -12.6903  -28.2039  -34.1124 H   0  0  0  0  0  0  0  0  0  0  0  0
  -12.1911  -27.6219  -36.5155 H   0  0  0  0  0  0  0  0  0  0  0  0
  -17.0939  -26.2264  -36.3711 H   0  0  0  0  0  0  0  0  0  0  0  0
  -17.3051  -24.7108  -35.4666 H   0  0  0  0  0  0  0  0  0  0  0  0
  -17.0778  -26.2418  -34.5937 H   0  0  0  0  0  0  0  0  0  0  0  0
  -12.9782  -25.0467  -35.5078 H   0  0  0  0  0  0  0  0  0  0  0  0
  -15.0034  -24.5251  -35.3641 H   0  0  0  0  0  0  0  0  0  0  0  0
  1  9  1  0  0  0  0
  1 10  1  0  0  0  0
  1 11  2  0  0  0  0
  2  3  1  0  0  0  0
  2  4  1  0  0  0  0
  3  5  1  0  0  0  0
  4  6  1  0  0  0  0
  5  7  1  0  0  0  0
  6  7  1  0  0  0  0
  7  9  1  0  0  0  0
  8 10  1  0  0  0  0
  2 12  1  0  0  0  0
  2 13  1  0  0  0  0
  3 14  1  0  0  0  0
  3 15  1  0  0  0  0
  4 16  1  0  0  0  0
  4 17  1  0  0  0  0
  5 18  1  0  0  0  0
  5 19  1  0  0  0  0
  6 20  1  0  0  0  0
  6 21  1  0  0  0  0
  7 22  1  0  0  0  0
  8 23  1  0  0  0  0
  8 24  1  0  0  0  0
  8 25  1  0  0  0  0
  9 26  1  0  0  0  0
 10 27  1  0  0  0  0
M  END
> <Name>
IA_107.cdx

> <SourceTag>
IA_107

> <Gold.Version>
5.2

> <Gold.Id.Protein>
6HGV|6HGV_protein|mol2

> <Gold.Goldscore.Fitness>
40.3699

> <Gold.Goldscore.Internal.Vdw>
-0.8536

> <Gold.Goldscore.Internal.Torsion>
-1.1843

> <Gold.Goldscore.External.Vdw>
26.0051

> <Gold.Goldscore.Internal.HBond>
0.0000

> <Gold.Goldscore.External.HBond>
4.6548

> <Gold.Goldscore.Internal.Correction>
-1.9959

> <Gold.Goldscore.Hbonds>
donor molecule, donor type, donor heavy atom, donor atom, acceptor molecule, acceptor atom, score
      L1  H     9    26       P1   853  0.13
      L1  H    10    27       P1   853  0.64

> <Gold.Goldscore.Internal.Vdw.Weighted>
-0.8536

> <Gold.Goldscore.Internal.Torsion.Weighted>
-1.1843

> <Gold.Goldscore.External.Vdw.Weighted>
35.7571

> <Gold.Goldscore.Internal.HBond.Weighted>
0.0000

> <Gold.Goldscore.External.HBond.Weighted>
4.6548

> <Gold.Goldscore.Internal.Correction.Weighted>
-1.9959

> <Gold.Protein.RotatedTorsions>
[ 3781 1176 1175 1172 ] final -121.23 input   60.00 | X-H torsion
[ 3847 1247 1246 1244 ] final  158.88 input   60.00 | X-H torsion
[ 4507 1931 1930 1928 ] final   18.62 input   60.00 | X-H torsion
[ 3677 1070 1069 1066 ] final -107.70 input   60.00 | X-H torsion
[ 3525  925  924  922 ] final   72.13 input   59.99 | X-H torsion
[ 4531 1957 1955 1953 ] final   -2.14 input   60.00 | X-H torsion

> <Gold.Protein.ActiveResidues>
 PHE267  PRO268  MET310  ASP335  TRP336  MET339  TYR343  THR360  PRO361  ILE363
 PRO371  SER374  ILE375  ASN378  PHE381  TYR383  GLN384  PHE387  LEU408  LEU417
 MET419  LEU428  TYR466  MET469  ASN472  ASP496  VAL498  LEU499  MET503  HIS524
 TRP525

> <Gold.Protein.RotatedAtoms>
   -2.6286  -29.9358  -30.8289 H   0  0  0  0  0  0  0  0  0  0  0  0  # atno 3525 bound_to 925
  -11.6252  -23.6962  -31.4379 H   0  0  0  0  0  0  0  0  0  0  0  0  # atno 3677 bound_to 1070
   -9.4560  -36.3153  -33.7368 H   0  0  0  0  0  0  0  0  0  0  0  0  # atno 3781 bound_to 1176
  -14.4484  -27.7050  -37.9375 H   0  0  0  0  0  0  0  0  0  0  0  0  # atno 3847 bound_to 1247
  -13.0546  -25.1709  -38.9116 H   0  0  0  0  0  0  0  0  0  0  0  0  # atno 4507 bound_to 1931
   -2.8332  -32.4753  -36.6931 H   0  0  0  0  0  0  0  0  0  0  0  0  # atno 4531 bound_to 1957
   -9.8566  -37.0935  -32.3649 LP  0  0  0  0  0  0  0  0  0  0  0  0  # atno 5205 bound_to 1176
  -10.8022  -37.2282  -33.6894 LP  0  0  0  0  0  0  0  0  0  0  0  0  # atno 5206 bound_to 1176
  -15.1472  -28.9637  -37.1790 LP  0  0  0  0  0  0  0  0  0  0  0  0  # atno 5215 bound_to 1247
  -15.9740  -27.5710  -37.3873 LP  0  0  0  0  0  0  0  0  0  0  0  0  # atno 5216 bound_to 1247
  -13.6216  -24.7493  -40.3775 LP  0  0  0  0  0  0  0  0  0  0  0  0  # atno 5217 bound_to 1931
  -12.5187  -23.8097  -39.6243 LP  0  0  0  0  0  0  0  0  0  0  0  0  # atno 5218 bound_to 1931
  -11.4205  -22.2510  -30.7184 LP  0  0  0  0  0  0  0  0  0  0  0  0  # atno 5224 bound_to 1070
  -12.8107  -23.0815  -30.5079 LP  0  0  0  0  0  0  0  0  0  0  0  0  # atno 5225 bound_to 1070

$$$$
IA_107.cdx|SeH_inactivess_minimized|sdf|9|dock9
  -GOLD-   4172118443D 1   1.00000     0.00000

 27 27  0  0  0  0  0  0  0  0  1 V2000
  -14.0436  -25.4941  -36.4095 C   0  0  0  0  0  0  0  0  0  0  0  0
  -10.2757  -27.3346  -33.9049 C   0  0  0  0  0  0  0  0  0  0  0  0
  -10.7478  -25.9574  -33.4462 C   0  0  0  0  0  0  0  0  0  0  0  0
  -11.0997  -27.8576  -35.0784 C   0  0  0  0  0  0  0  0  0  0  0  0
  -10.7824  -24.9598  -34.6048 C   0  0  0  0  0  0  0  0  0  0  0  0
  -11.1333  -26.8556  -36.2332 C   0  0  0  0  0  0  0  0  0  0  0  0
  -11.6056  -25.4618  -35.7985 C   0  0  0  0  0  0  0  0  0  0  0  0
  -16.5289  -25.5352  -36.5694 C   0  0  0  0  0  0  0  0  0  0  0  0
  -13.0291  -25.4931  -35.4554 N   0  0  0  0  0  0  0  0  0  0  0  0
  -15.3005  -25.5270  -35.8106 N   0  0  0  0  0  0  0  0  0  0  0  0
  -13.8555  -25.4697  -37.6251 O   0  0  0  0  0  0  0  0  0  0  0  0
   -9.2178  -27.2854  -34.1903 H   0  0  0  0  0  0  0  0  0  0  0  0
  -10.3460  -28.0411  -33.0672 H   0  0  0  0  0  0  0  0  0  0  0  0
  -11.7454  -26.0387  -33.0012 H   0  0  0  0  0  0  0  0  0  0  0  0
  -10.0769  -25.5829  -32.6638 H   0  0  0  0  0  0  0  0  0  0  0  0
  -10.6742  -28.8047  -35.4307 H   0  0  0  0  0  0  0  0  0  0  0  0
  -12.1217  -28.0695  -34.7459 H   0  0  0  0  0  0  0  0  0  0  0  0
  -11.1925  -23.9993  -34.2466 H   0  0  0  0  0  0  0  0  0  0  0  0
   -9.7507  -24.7397  -34.9269 H   0  0  0  0  0  0  0  0  0  0  0  0
  -10.1294  -26.7869  -36.6852 H   0  0  0  0  0  0  0  0  0  0  0  0
  -11.7920  -27.2406  -37.0312 H   0  0  0  0  0  0  0  0  0  0  0  0
  -11.5113  -24.7663  -36.6286 H   0  0  0  0  0  0  0  0  0  0  0  0
  -16.5397  -24.7012  -37.2758 H   0  0  0  0  0  0  0  0  0  0  0  0
  -17.3877  -25.4400  -35.8993 H   0  0  0  0  0  0  0  0  0  0  0  0
  -16.6221  -26.4706  -37.1277 H   0  0  0  0  0  0  0  0  0  0  0  0
  -13.2890  -25.5152  -34.4739 H   0  0  0  0  0  0  0  0  0  0  0  0
  -15.3584  -25.5926  -34.7992 H   0  0  0  0  0  0  0  0  0  0  0  0
  1  9  1  0  0  0  0
  1 10  1  0  0  0  0
  1 11  2  0  0  0  0
  2  3  1  0  0  0  0
  2  4  1  0  0  0  0
  3  5  1  0  0  0  0
  4  6  1  0  0  0  0
  5  7  1  0  0  0  0
  6  7  1  0  0  0  0
  7  9  1  0  0  0  0
  8 10  1  0  0  0  0
  2 12  1  0  0  0  0
  2 13  1  0  0  0  0
  3 14  1  0  0  0  0
  3 15  1  0  0  0  0
  4 16  1  0  0  0  0
  4 17  1  0  0  0  0
  5 18  1  0  0  0  0
  5 19  1  0  0  0  0
  6 20  1  0  0  0  0
  6 21  1  0  0  0  0
  7 22  1  0  0  0  0
  8 23  1  0  0  0  0
  8 24  1  0  0  0  0
  8 25  1  0  0  0  0
  9 26  1  0  0  0  0
 10 27  1  0  0  0  0
M  END
> <Name>
IA_107.cdx

> <SourceTag>
IA_107

> <Gold.Version>
5.2

> <Gold.Id.Protein>
6HGV|6HGV_protein|mol2

> <Gold.Goldscore.Fitness>
39.9148

> <Gold.Goldscore.Internal.Vdw>
-0.9766

> <Gold.Goldscore.Internal.Torsion>
-1.1802

> <Gold.Goldscore.External.Vdw>
28.2039

> <Gold.Goldscore.Internal.HBond>
0.0000

> <Gold.Goldscore.External.HBond>
1.2953

> <Gold.Goldscore.Internal.Correction>
-1.9959

> <Gold.Goldscore.Hbonds>
donor molecule, donor type, donor heavy atom, donor atom, acceptor molecule, acceptor atom, score
      P1  H  1931  4507       L1    11  0.65

> <Gold.Goldscore.Internal.Vdw.Weighted>
-0.9766

> <Gold.Goldscore.Internal.Torsion.Weighted>
-1.1802

> <Gold.Goldscore.External.Vdw.Weighted>
38.7804

> <Gold.Goldscore.Internal.HBond.Weighted>
0.0000

> <Gold.Goldscore.External.HBond.Weighted>
1.2953

> <Gold.Goldscore.Internal.Correction.Weighted>
-1.9959

> <Gold.Protein.RotatedTorsions>
[ 3781 1176 1175 1172 ] final   50.29 input   60.00 | X-H torsion
[ 3847 1247 1246 1244 ] final  139.88 input   60.00 | X-H torsion
[ 4507 1931 1930 1928 ] final   20.40 input   60.00 | X-H torsion
[ 3677 1070 1069 1066 ] final  -62.25 input   60.00 | X-H torsion
[ 3525  925  924  922 ] final -139.38 input   59.99 | X-H torsion
[ 4531 1957 1955 1953 ] final  104.59 input   60.00 | X-H torsion

> <Gold.Protein.ActiveResidues>
 PHE267  PRO268  MET310  ASP335  TRP336  MET339  TYR343  THR360  PRO361  ILE363
 PRO371  SER374  ILE375  ASN378  PHE381  TYR383  GLN384  PHE387  LEU408  LEU417
 MET419  LEU428  TYR466  MET469  ASN472  ASP496  VAL498  LEU499  MET503  HIS524
 TRP525

> <Gold.Protein.RotatedAtoms>
   -2.7335  -30.0543  -29.0338 H   0  0  0  0  0  0  0  0  0  0  0  0  # atno 3525 bound_to 925
  -12.2905  -23.8312  -31.1877 H   0  0  0  0  0  0  0  0  0  0  0  0  # atno 3677 bound_to 1070
  -10.6898  -37.4478  -32.9109 H   0  0  0  0  0  0  0  0  0  0  0  0  # atno 3781 bound_to 1176
  -14.3344  -27.9854  -37.8750 H   0  0  0  0  0  0  0  0  0  0  0  0  # atno 3847 bound_to 1247
  -13.0349  -25.1539  -38.8986 H   0  0  0  0  0  0  0  0  0  0  0  0  # atno 4507 bound_to 1931
   -2.6101  -33.9597  -36.7612 H   0  0  0  0  0  0  0  0  0  0  0  0  # atno 4531 bound_to 1957
  -10.1012  -36.5848  -34.1586 LP  0  0  0  0  0  0  0  0  0  0  0  0  # atno 5205 bound_to 1176
   -9.3152  -36.5965  -32.7273 LP  0  0  0  0  0  0  0  0  0  0  0  0  # atno 5206 bound_to 1176
  -15.4373  -28.8910  -37.0930 LP  0  0  0  0  0  0  0  0  0  0  0  0  # atno 5215 bound_to 1247
  -15.7987  -27.3614  -37.5363 LP  0  0  0  0  0  0  0  0  0  0  0  0  # atno 5216 bound_to 1247
  -13.6309  -24.7737  -40.3642 LP  0  0  0  0  0  0  0  0  0  0  0  0  # atno 5217 bound_to 1931
  -12.5291  -23.8024  -39.6507 LP  0  0  0  0  0  0  0  0  0  0  0  0  # atno 5218 bound_to 1931
  -11.0907  -22.7324  -31.1547 LP  0  0  0  0  0  0  0  0  0  0  0  0  # atno 5224 bound_to 1070
  -12.4705  -22.4641  -30.3236 LP  0  0  0  0  0  0  0  0  0  0  0  0  # atno 5225 bound_to 1070

$$$$
IA_107.cdx|SeH_inactivess_minimized|sdf|9|dock2
  -GOLD-   4172118443D 1   1.00000     0.00000

 27 27  0  0  0  0  0  0  0  0  1 V2000
  -13.9894  -25.5454  -36.4395 C   0  0  0  0  0  0  0  0  0  0  0  0
   -9.9595  -26.8318  -33.7094 C   0  0  0  0  0  0  0  0  0  0  0  0
  -10.7498  -25.5304  -33.6014 C   0  0  0  0  0  0  0  0  0  0  0  0
  -10.5646  -27.7820  -34.7393 C   0  0  0  0  0  0  0  0  0  0  0  0
  -10.9162  -24.8583  -34.9650 C   0  0  0  0  0  0  0  0  0  0  0  0
  -10.7311  -27.1046  -36.1003 C   0  0  0  0  0  0  0  0  0  0  0  0
  -11.5236  -25.7931  -36.0195 C   0  0  0  0  0  0  0  0  0  0  0  0
  -16.4794  -25.5701  -36.4975 C   0  0  0  0  0  0  0  0  0  0  0  0
  -12.9275  -26.0676  -35.7053 N   0  0  0  0  0  0  0  0  0  0  0  0
  -15.2138  -25.9650  -35.9254 N   0  0  0  0  0  0  0  0  0  0  0  0
  -13.8639  -24.8088  -37.4169 O   0  0  0  0  0  0  0  0  0  0  0  0
   -8.9195  -26.6102  -33.9787 H   0  0  0  0  0  0  0  0  0  0  0  0
   -9.9353  -27.3254  -32.7288 H   0  0  0  0  0  0  0  0  0  0  0  0
  -11.7355  -25.7323  -33.1685 H   0  0  0  0  0  0  0  0  0  0  0  0
  -10.2337  -24.8449  -32.9187 H   0  0  0  0  0  0  0  0  0  0  0  0
   -9.9203  -28.6625  -34.8475 H   0  0  0  0  0  0  0  0  0  0  0  0
  -11.5377  -28.1387  -34.3848 H   0  0  0  0  0  0  0  0  0  0  0  0
  -11.5488  -23.9603  -34.8540 H   0  0  0  0  0  0  0  0  0  0  0  0
   -9.9360  -24.4893  -35.3111 H   0  0  0  0  0  0  0  0  0  0  0  0
   -9.7360  -26.9149  -36.5369 H   0  0  0  0  0  0  0  0  0  0  0  0
  -11.2320  -27.8009  -36.7954 H   0  0  0  0  0  0  0  0  0  0  0  0
  -11.5225  -25.3027  -36.9897 H   0  0  0  0  0  0  0  0  0  0  0  0
  -16.6529  -26.1079  -37.4331 H   0  0  0  0  0  0  0  0  0  0  0  0
  -16.4824  -24.4961  -36.7032 H   0  0  0  0  0  0  0  0  0  0  0  0
  -17.2945  -25.7965  -35.8049 H   0  0  0  0  0  0  0  0  0  0  0  0
  -13.1367  -26.6680  -34.9133 H   0  0  0  0  0  0  0  0  0  0  0  0
  -15.2196  -26.6112  -35.1425 H   0  0  0  0  0  0  0  0  0  0  0  0
  1  9  1  0  0  0  0
  1 10  1  0  0  0  0
  1 11  2  0  0  0  0
  2  3  1  0  0  0  0
  2  4  1  0  0  0  0
  3  5  1  0  0  0  0
  4  6  1  0  0  0  0
  5  7  1  0  0  0  0
  6  7  1  0  0  0  0
  7  9  1  0  0  0  0
  8 10  1  0  0  0  0
  2 12  1  0  0  0  0
  2 13  1  0  0  0  0
  3 14  1  0  0  0  0
  3 15  1  0  0  0  0
  4 16  1  0  0  0  0
  4 17  1  0  0  0  0
  5 18  1  0  0  0  0
  5 19  1  0  0  0  0
  6 20  1  0  0  0  0
  6 21  1  0  0  0  0
  7 22  1  0  0  0  0
  8 23  1  0  0  0  0
  8 24  1  0  0  0  0
  8 25  1  0  0  0  0
  9 26  1  0  0  0  0
 10 27  1  0  0  0  0
M  END
> <Name>
IA_107.cdx

> <SourceTag>
IA_107

> <Gold.Version>
5.2

> <Gold.Id.Protein>
6HGV|6HGV_protein|mol2

> <Gold.Goldscore.Fitness>
39.8077

> <Gold.Goldscore.Internal.Vdw>
-1.3500

> <Gold.Goldscore.Internal.Torsion>
-1.1656

> <Gold.Goldscore.External.Vdw>
28.8763

> <Gold.Goldscore.Internal.HBond>
0.0000

> <Gold.Goldscore.External.HBond>
0.6224

> <Gold.Goldscore.Internal.Correction>
-1.9959

> <Gold.Goldscore.Hbonds>
donor molecule, donor type, donor heavy atom, donor atom, acceptor molecule, acceptor atom, score
      P1  H  1931  4507       L1    11  0.31

> <Gold.Goldscore.Internal.Vdw.Weighted>
-1.3500

> <Gold.Goldscore.Internal.Torsion.Weighted>
-1.1656

> <Gold.Goldscore.External.Vdw.Weighted>
39.7049

> <Gold.Goldscore.Internal.HBond.Weighted>
0.0000

> <Gold.Goldscore.External.HBond.Weighted>
0.6224

> <Gold.Goldscore.Internal.Correction.Weighted>
-1.9959

> <Gold.Protein.RotatedTorsions>
[ 3781 1176 1175 1172 ] final  -58.35 input   60.00 | X-H torsion
[ 3847 1247 1246 1244 ] final   52.70 input   60.00 | X-H torsion
[ 4507 1931 1930 1928 ] final   27.23 input   60.00 | X-H torsion
[ 3677 1070 1069 1066 ] final  -65.79 input   60.00 | X-H torsion
[ 3525  925  924  922 ] final   -4.34 input   59.99 | X-H torsion
[ 4531 1957 1955 1953 ] final  148.84 input   60.00 | X-H torsion

> <Gold.Protein.ActiveResidues>
 PHE267  PRO268  MET310  ASP335  TRP336  MET339  TYR343  THR360  PRO361  ILE363
 PRO371  SER374  ILE375  ASN378  PHE381  TYR383  GLN384  PHE387  LEU408  LEU417
 MET419  LEU428  TYR466  MET469  ASN472  ASP496  VAL498  LEU499  MET503  HIS524
 TRP525

> <Gold.Protein.RotatedAtoms>
   -3.6345  -29.5350  -30.4165 H   0  0  0  0  0  0  0  0  0  0  0  0  # atno 3525 bound_to 925
  -12.2409  -23.8392  -31.2166 H   0  0  0  0  0  0  0  0  0  0  0  0  # atno 3677 bound_to 1070
  -10.2542  -36.6908  -34.1560 H   0  0  0  0  0  0  0  0  0  0  0  0  # atno 3781 bound_to 1176
  -14.9398  -28.9508  -37.2681 H   0  0  0  0  0  0  0  0  0  0  0  0  # atno 3847 bound_to 1247
  -12.9599  -25.0835  -38.8551 H   0  0  0  0  0  0  0  0  0  0  0  0  # atno 4507 bound_to 1931
   -1.9207  -34.0289  -36.8934 H   0  0  0  0  0  0  0  0  0  0  0  0  # atno 4531 bound_to 1957
   -9.2617  -36.5036  -32.8801 LP  0  0  0  0  0  0  0  0  0  0  0  0  # atno 5205 bound_to 1176
  -10.5933  -37.4400  -32.7519 LP  0  0  0  0  0  0  0  0  0  0  0  0  # atno 5206 bound_to 1176
  -16.0484  -27.7597  -37.2859 LP  0  0  0  0  0  0  0  0  0  0  0  0  # atno 5215 bound_to 1247
  -14.5780  -27.5205  -37.9545 LP  0  0  0  0  0  0  0  0  0  0  0  0  # atno 5216 bound_to 1247
  -13.6618  -24.8654  -40.3069 LP  0  0  0  0  0  0  0  0  0  0  0  0  # atno 5217 bound_to 1931
  -12.5738  -23.7816  -39.7517 LP  0  0  0  0  0  0  0  0  0  0  0  0  # atno 5218 bound_to 1931
  -11.0987  -22.6839  -31.1232 LP  0  0  0  0  0  0  0  0  0  0  0  0  # atno 5224 bound_to 1070
  -12.5125  -22.5046  -30.3260 LP  0  0  0  0  0  0  0  0  0  0  0  0  # atno 5225 bound_to 1070

$$$$
IA_107.cdx|SeH_inactivess_minimized|sdf|9|dock4
  -GOLD-   4172118443D 1   1.00000     0.00000

 27 27  0  0  0  0  0  0  0  0  1 V2000
  -14.4844  -26.5682  -35.2725 C   0  0  0  0  0  0  0  0  0  0  0  0
   -9.5974  -25.8085  -34.6875 C   0  0  0  0  0  0  0  0  0  0  0  0
  -10.3665  -26.3455  -35.8917 C   0  0  0  0  0  0  0  0  0  0  0  0
  -10.5282  -25.4396  -33.5355 C   0  0  0  0  0  0  0  0  0  0  0  0
  -11.2781  -27.5103  -35.5033 C   0  0  0  0  0  0  0  0  0  0  0  0
  -11.4393  -26.6067  -33.1524 C   0  0  0  0  0  0  0  0  0  0  0  0
  -12.2252  -27.1651  -34.3463 C   0  0  0  0  0  0  0  0  0  0  0  0
  -16.5812  -25.5503  -36.1507 C   0  0  0  0  0  0  0  0  0  0  0  0
  -13.2326  -26.1978  -34.7871 N   0  0  0  0  0  0  0  0  0  0  0  0
  -15.2421  -25.4524  -35.6195 N   0  0  0  0  0  0  0  0  0  0  0  0
  -14.8725  -27.7306  -35.3808 O   0  0  0  0  0  0  0  0  0  0  0  0
   -8.8717  -26.5583  -34.3494 H   0  0  0  0  0  0  0  0  0  0  0  0
   -9.0221  -24.9230  -34.9885 H   0  0  0  0  0  0  0  0  0  0  0  0
  -10.9649  -25.5424  -36.3352 H   0  0  0  0  0  0  0  0  0  0  0  0
   -9.6576  -26.6788  -36.6591 H   0  0  0  0  0  0  0  0  0  0  0  0
   -9.9322  -25.1423  -32.6645 H   0  0  0  0  0  0  0  0  0  0  0  0
  -11.1381  -24.5743  -33.8169 H   0  0  0  0  0  0  0  0  0  0  0  0
  -11.8648  -27.8236  -36.3846 H   0  0  0  0  0  0  0  0  0  0  0  0
  -10.6594  -28.3828  -35.2338 H   0  0  0  0  0  0  0  0  0  0  0  0
  -10.8333  -27.4071  -32.6954 H   0  0  0  0  0  0  0  0  0  0  0  0
  -12.1402  -26.2790  -32.3649 H   0  0  0  0  0  0  0  0  0  0  0  0
  -12.7733  -28.0533  -34.0424 H   0  0  0  0  0  0  0  0  0  0  0  0
  -16.6309  -26.3444  -36.9001 H   0  0  0  0  0  0  0  0  0  0  0  0
  -16.8721  -24.6059  -36.6188 H   0  0  0  0  0  0  0  0  0  0  0  0
  -17.2899  -25.7773  -35.3497 H   0  0  0  0  0  0  0  0  0  0  0  0
  -13.0074  -25.2088  -34.7364 H   0  0  0  0  0  0  0  0  0  0  0  0
  -14.8565  -24.5284  -35.4520 H   0  0  0  0  0  0  0  0  0  0  0  0
  1  9  1  0  0  0  0
  1 10  1  0  0  0  0
  1 11  2  0  0  0  0
  2  3  1  0  0  0  0
  2  4  1  0  0  0  0
  3  5  1  0  0  0  0
  4  6  1  0  0  0  0
  5  7  1  0  0  0  0
  6  7  1  0  0  0  0
  7  9  1  0  0  0  0
  8 10  1  0  0  0  0
  2 12  1  0  0  0  0
  2 13  1  0  0  0  0
  3 14  1  0  0  0  0
  3 15  1  0  0  0  0
  4 16  1  0  0  0  0
  4 17  1  0  0  0  0
  5 18  1  0  0  0  0
  5 19  1  0  0  0  0
  6 20  1  0  0  0  0
  6 21  1  0  0  0  0
  7 22  1  0  0  0  0
  8 23  1  0  0  0  0
  8 24  1  0  0  0  0
  8 25  1  0  0  0  0
  9 26  1  0  0  0  0
 10 27  1  0  0  0  0
M  END
> <Name>
IA_107.cdx

> <SourceTag>
IA_107

> <Gold.Version>
5.2

> <Gold.Id.Protein>
6HGV|6HGV_protein|mol2

> <Gold.Goldscore.Fitness>
38.4479

> <Gold.Goldscore.Internal.Vdw>
-1.3522

> <Gold.Goldscore.Internal.Torsion>
-1.1620

> <Gold.Goldscore.External.Vdw>
25.2337

> <Gold.Goldscore.Internal.HBond>
0.0000

> <Gold.Goldscore.External.HBond>
4.2699

> <Gold.Goldscore.Internal.Correction>
-1.9959

> <Gold.Goldscore.Hbonds>
donor molecule, donor type, donor heavy atom, donor atom, acceptor molecule, acceptor atom, score
      L1  H     9    26       P1   853  0.04
      L1  H    10    27       P1   853  0.67

> <Gold.Goldscore.Internal.Vdw.Weighted>
-1.3522

> <Gold.Goldscore.Internal.Torsion.Weighted>
-1.1620

> <Gold.Goldscore.External.Vdw.Weighted>
34.6964

> <Gold.Goldscore.Internal.HBond.Weighted>
0.0000

> <Gold.Goldscore.External.HBond.Weighted>
4.2699

> <Gold.Goldscore.Internal.Correction.Weighted>
-1.9959

> <Gold.Protein.RotatedTorsions>
[ 3781 1176 1175 1172 ] final  -21.40 input   60.00 | X-H torsion
[ 3847 1247 1246 1244 ] final  159.53 input   60.00 | X-H torsion
[ 4507 1931 1930 1928 ] final   18.06 input   60.00 | X-H torsion
[ 3677 1070 1069 1066 ] final  -75.53 input   60.00 | X-H torsion
[ 3525  925  924  922 ] final  144.84 input   59.99 | X-H torsion
[ 4531 1957 1955 1953 ] final  -51.82 input   60.00 | X-H torsion

> <Gold.Protein.ActiveResidues>
 PHE267  PRO268  MET310  ASP335  TRP336  MET339  TYR343  THR360  PRO361  ILE363
 PRO371  SER374  ILE375  ASN378  PHE381  TYR383  GLN384  PHE387  LEU408  LEU417
 MET419  LEU428  TYR466  MET469  ASN472  ASP496  VAL498  LEU499  MET503  HIS524
 TRP525

> <Gold.Protein.RotatedAtoms>
   -2.0555  -30.2672  -29.9378 H   0  0  0  0  0  0  0  0  0  0  0  0  # atno 3525 bound_to 925
  -12.0996  -23.8447  -31.2892 H   0  0  0  0  0  0  0  0  0  0  0  0  # atno 3677 bound_to 1070
  -10.6692  -37.0513  -33.9330 H   0  0  0  0  0  0  0  0  0  0  0  0  # atno 3781 bound_to 1176
  -14.4538  -27.6960  -37.9388 H   0  0  0  0  0  0  0  0  0  0  0  0  # atno 3847 bound_to 1247
  -13.0608  -25.1762  -38.9159 H   0  0  0  0  0  0  0  0  0  0  0  0  # atno 4507 bound_to 1931
   -2.1093  -32.1976  -36.8259 H   0  0  0  0  0  0  0  0  0  0  0  0  # atno 4531 bound_to 1957
   -9.3007  -36.3174  -33.4465 LP  0  0  0  0  0  0  0  0  0  0  0  0  # atno 5205 bound_to 1176
  -10.1363  -37.2631  -32.4101 LP  0  0  0  0  0  0  0  0  0  0  0  0  # atno 5206 bound_to 1176
  -15.1373  -28.9645  -37.1826 LP  0  0  0  0  0  0  0  0  0  0  0  0  # atno 5215 bound_to 1247
  -15.9785  -27.5793  -37.3823 LP  0  0  0  0  0  0  0  0  0  0  0  0  # atno 5216 bound_to 1247
  -13.6185  -24.7416  -40.3815 LP  0  0  0  0  0  0  0  0  0  0  0  0  # atno 5217 bound_to 1931
  -12.5155  -23.8121  -39.6160 LP  0  0  0  0  0  0  0  0  0  0  0  0  # atno 5218 bound_to 1931
  -11.1372  -22.5578  -31.0324 LP  0  0  0  0  0  0  0  0  0  0  0  0  # atno 5224 bound_to 1070
  -12.6163  -22.6252  -30.3436 LP  0  0  0  0  0  0  0  0  0  0  0  0  # atno 5225 bound_to 1070

$$$$
IA_107.cdx|SeH_inactivess_minimized|sdf|9|dock5
  -GOLD-   4172118443D 1   1.00000     0.00000

 27 27  0  0  0  0  0  0  0  0  1 V2000
  -14.5246  -26.5821  -35.3793 C   0  0  0  0  0  0  0  0  0  0  0  0
   -9.6643  -25.8484  -34.8240 C   0  0  0  0  0  0  0  0  0  0  0  0
  -10.4689  -26.3985  -35.9987 C   0  0  0  0  0  0  0  0  0  0  0  0
  -10.5615  -25.4542  -33.6538 C   0  0  0  0  0  0  0  0  0  0  0  0
  -11.3782  -27.5500  -35.5677 C   0  0  0  0  0  0  0  0  0  0  0  0
  -11.4704  -26.6082  -33.2282 C   0  0  0  0  0  0  0  0  0  0  0  0
  -12.2917  -27.1795  -34.3917 C   0  0  0  0  0  0  0  0  0  0  0  0
  -16.6077  -25.5636  -36.2888 C   0  0  0  0  0  0  0  0  0  0  0  0
  -13.3036  -26.2117  -34.8211 N   0  0  0  0  0  0  0  0  0  0  0  0
  -15.2946  -25.4657  -35.6963 N   0  0  0  0  0  0  0  0  0  0  0  0
  -14.8791  -27.7449  -35.5681 O   0  0  0  0  0  0  0  0  0  0  0  0
   -8.9353  -26.5982  -34.4933 H   0  0  0  0  0  0  0  0  0  0  0  0
   -9.0909  -24.9721  -35.1542 H   0  0  0  0  0  0  0  0  0  0  0  0
  -11.0732  -25.5980  -36.4390 H   0  0  0  0  0  0  0  0  0  0  0  0
   -9.7831  -26.7492  -36.7792 H   0  0  0  0  0  0  0  0  0  0  0  0
   -9.9404  -25.1477  -32.8038 H   0  0  0  0  0  0  0  0  0  0  0  0
  -11.1724  -24.5890  -33.9328 H   0  0  0  0  0  0  0  0  0  0  0  0
  -11.9903  -27.8728  -36.4280 H   0  0  0  0  0  0  0  0  0  0  0  0
  -10.7589  -28.4229  -35.3008 H   0  0  0  0  0  0  0  0  0  0  0  0
  -10.8582  -27.4059  -32.7745 H   0  0  0  0  0  0  0  0  0  0  0  0
  -12.1478  -26.2628  -32.4277 H   0  0  0  0  0  0  0  0  0  0  0  0
  -12.8378  -28.0586  -34.0593 H   0  0  0  0  0  0  0  0  0  0  0  0
  -16.9077  -24.5960  -36.6993 H   0  0  0  0  0  0  0  0  0  0  0  0
  -17.3401  -25.8689  -35.5363 H   0  0  0  0  0  0  0  0  0  0  0  0
  -16.6047  -26.3023  -37.0948 H   0  0  0  0  0  0  0  0  0  0  0  0
  -13.1051  -25.2223  -34.7063 H   0  0  0  0  0  0  0  0  0  0  0  0
  -14.9393  -24.5442  -35.4617 H   0  0  0  0  0  0  0  0  0  0  0  0
  1  9  1  0  0  0  0
  1 10  1  0  0  0  0
  1 11  2  0  0  0  0
  2  3  1  0  0  0  0
  2  4  1  0  0  0  0
  3  5  1  0  0  0  0
  4  6  1  0  0  0  0
  5  7  1  0  0  0  0
  6  7  1  0  0  0  0
  7  9  1  0  0  0  0
  8 10  1  0  0  0  0
  2 12  1  0  0  0  0
  2 13  1  0  0  0  0
  3 14  1  0  0  0  0
  3 15  1  0  0  0  0
  4 16  1  0  0  0  0
  4 17  1  0  0  0  0
  5 18  1  0  0  0  0
  5 19  1  0  0  0  0
  6 20  1  0  0  0  0
  6 21  1  0  0  0  0
  7 22  1  0  0  0  0
  8 23  1  0  0  0  0
  8 24  1  0  0  0  0
  8 25  1  0  0  0  0
  9 26  1  0  0  0  0
 10 27  1  0  0  0  0
M  END
> <Name>
IA_107.cdx

> <SourceTag>
IA_107

> <Gold.Version>
5.2

> <Gold.Id.Protein>
6HGV|6HGV_protein|mol2

> <Gold.Goldscore.Fitness>
38.2911

> <Gold.Goldscore.Internal.Vdw>
-1.2526

> <Gold.Goldscore.Internal.Torsion>
-1.1635

> <Gold.Goldscore.External.Vdw>
24.6684

> <Gold.Goldscore.Internal.HBond>
0.0000

> <Gold.Goldscore.External.HBond>
4.7923

> <Gold.Goldscore.Internal.Correction>
-1.9959

> <Gold.Goldscore.Hbonds>
donor molecule, donor type, donor heavy atom, donor atom, acceptor molecule, acceptor atom, score
      L1  H     9    26       P1   853  0.06
      L1  H    10    27       P1   853  0.74

> <Gold.Goldscore.Internal.Vdw.Weighted>
-1.2526

> <Gold.Goldscore.Internal.Torsion.Weighted>
-1.1635

> <Gold.Goldscore.External.Vdw.Weighted>
33.9190

> <Gold.Goldscore.Internal.HBond.Weighted>
0.0000

> <Gold.Goldscore.External.HBond.Weighted>
4.7923

> <Gold.Goldscore.Internal.Correction.Weighted>
-1.9959

> <Gold.Protein.RotatedTorsions>
[ 3781 1176 1175 1172 ] final -136.58 input   60.00 | X-H torsion
[ 3847 1247 1246 1244 ] final  148.86 input   60.00 | X-H torsion
[ 4507 1931 1930 1928 ] final   13.43 input   60.00 | X-H torsion
[ 3677 1070 1069 1066 ] final -123.42 input   60.00 | X-H torsion
[ 3525  925  924  922 ] final   48.28 input   59.99 | X-H torsion
[ 4531 1957 1955 1953 ] final  -96.49 input   60.00 | X-H torsion

> <Gold.Protein.ActiveResidues>
 PHE267  PRO268  MET310  ASP335  TRP336  MET339  TYR343  THR360  PRO361  ILE363
 PRO371  SER374  ILE375  ASN378  PHE381  TYR383  GLN384  PHE387  LEU408  LEU417
 MET419  LEU428  TYR466  MET469  ASN472  ASP496  VAL498  LEU499  MET503  HIS524
 TRP525

> <Gold.Protein.RotatedAtoms>
   -2.9805  -29.7791  -30.8650 H   0  0  0  0  0  0  0  0  0  0  0  0  # atno 3525 bound_to 925
  -11.4215  -23.5417  -31.4500 H   0  0  0  0  0  0  0  0  0  0  0  0  # atno 3677 bound_to 1070
   -9.3331  -36.3150  -33.5189 H   0  0  0  0  0  0  0  0  0  0  0  0  # atno 3781 bound_to 1176
  -14.3772  -27.8498  -37.9101 H   0  0  0  0  0  0  0  0  0  0  0  0  # atno 3847 bound_to 1247
  -13.1118  -25.2172  -38.9536 H   0  0  0  0  0  0  0  0  0  0  0  0  # atno 4507 bound_to 1931
   -1.4847  -32.5152  -36.9502 H   0  0  0  0  0  0  0  0  0  0  0  0  # atno 4531 bound_to 1957
  -10.0693  -37.2262  -32.3893 LP  0  0  0  0  0  0  0  0  0  0  0  0  # atno 5205 bound_to 1176
  -10.7132  -37.0959  -33.8843 LP  0  0  0  0  0  0  0  0  0  0  0  0  # atno 5206 bound_to 1176
  -15.3018  -28.9371  -37.1285 LP  0  0  0  0  0  0  0  0  0  0  0  0  # atno 5215 bound_to 1247
  -15.8911  -27.4519  -37.4654 LP  0  0  0  0  0  0  0  0  0  0  0  0  # atno 5216 bound_to 1247
  -13.5912  -24.6774  -40.4120 LP  0  0  0  0  0  0  0  0  0  0  0  0  # atno 5217 bound_to 1931
  -12.4914  -23.8350  -39.5475 LP  0  0  0  0  0  0  0  0  0  0  0  0  # atno 5218 bound_to 1931
  -11.6259  -22.1827  -30.5785 LP  0  0  0  0  0  0  0  0  0  0  0  0  # atno 5224 bound_to 1070
  -12.8104  -23.3053  -30.6355 LP  0  0  0  0  0  0  0  0  0  0  0  0  # atno 5225 bound_to 1070

$$$$
IA_108.cdx|SeH_inactivess_minimized|sdf|10|dock7
  -GOLD-   4172118453D 1   1.00000     0.00000

 29 29  0  0  0  0  0  0  0  0  1 V2000
  -15.8976  -24.8375  -40.7457 C   0  0  0  0  0  0  0  0  0  0  0  0
  -15.7433  -24.1048  -39.8073 C   0  0  0  0  0  0  0  0  0  0  0  0
  -14.1785  -24.9431  -37.5140 C   0  0  0  0  0  0  0  0  0  0  0  0
  -10.6122  -25.6453  -34.0667 C   0  0  0  0  0  0  0  0  0  0  0  0
  -10.2231  -25.4748  -35.5327 C   0  0  0  0  0  0  0  0  0  0  0  0
  -12.1200  -25.5284  -33.8602 C   0  0  0  0  0  0  0  0  0  0  0  0
  -10.9959  -26.4372  -36.4356 C   0  0  0  0  0  0  0  0  0  0  0  0
  -12.8883  -26.4910  -34.7668 C   0  0  0  0  0  0  0  0  0  0  0  0
  -12.5157  -26.3394  -36.2477 C   0  0  0  0  0  0  0  0  0  0  0  0
  -15.5580  -23.2140  -38.6591 C   0  0  0  0  0  0  0  0  0  0  0  0
  -13.0095  -25.0619  -36.7665 N   0  0  0  0  0  0  0  0  0  0  0  0
  -14.4127  -23.6196  -37.8788 N   0  0  0  0  0  0  0  0  0  0  0  0
  -14.9114  -25.8848  -37.8138 O   0  0  0  0  0  0  0  0  0  0  0  0
  -16.0339  -25.4875  -41.5782 H   0  0  0  0  0  0  0  0  0  0  0  0
  -10.2651  -26.6207  -33.7042 H   0  0  0  0  0  0  0  0  0  0  0  0
  -10.1020  -24.8826  -33.4636 H   0  0  0  0  0  0  0  0  0  0  0  0
  -10.4132  -24.4430  -35.8473 H   0  0  0  0  0  0  0  0  0  0  0  0
   -9.1472  -25.6525  -35.6484 H   0  0  0  0  0  0  0  0  0  0  0  0
  -12.3634  -25.7427  -32.8128 H   0  0  0  0  0  0  0  0  0  0  0  0
  -12.4408  -24.5003  -34.0599 H   0  0  0  0  0  0  0  0  0  0  0  0
  -10.7368  -26.2356  -37.4898 H   0  0  0  0  0  0  0  0  0  0  0  0
  -10.6596  -27.4694  -36.2401 H   0  0  0  0  0  0  0  0  0  0  0  0
  -12.7029  -27.5275  -34.4380 H   0  0  0  0  0  0  0  0  0  0  0  0
  -13.9724  -26.3279  -34.6365 H   0  0  0  0  0  0  0  0  0  0  0  0
  -13.0088  -27.1123  -36.8317 H   0  0  0  0  0  0  0  0  0  0  0  0
  -16.4474  -23.2253  -38.0215 H   0  0  0  0  0  0  0  0  0  0  0  0
  -15.4132  -22.1846  -39.0019 H   0  0  0  0  0  0  0  0  0  0  0  0
  -12.4732  -24.2217  -36.5716 H   0  0  0  0  0  0  0  0  0  0  0  0
  -13.7771  -22.9012  -37.5466 H   0  0  0  0  0  0  0  0  0  0  0  0
  1  2  3  0  0  0  0
  2 10  1  0  0  0  0
  3 11  1  0  0  0  0
  3 12  1  0  0  0  0
  3 13  2  0  0  0  0
  4  5  1  0  0  0  0
  4  6  1  0  0  0  0
  5  7  1  0  0  0  0
  6  8  1  0  0  0  0
  7  9  1  0  0  0  0
  8  9  1  0  0  0  0
  9 11  1  0  0  0  0
 10 12  1  0  0  0  0
  1 14  1  0  0  0  0
  4 15  1  0  0  0  0
  4 16  1  0  0  0  0
  5 17  1  0  0  0  0
  5 18  1  0  0  0  0
  6 19  1  0  0  0  0
  6 20  1  0  0  0  0
  7 21  1  0  0  0  0
  7 22  1  0  0  0  0
  8 23  1  0  0  0  0
  8 24  1  0  0  0  0
  9 25  1  0  0  0  0
 10 26  1  0  0  0  0
 10 27  1  0  0  0  0
 11 28  1  0  0  0  0
 12 29  1  0  0  0  0
M  END
> <Name>
IA_108.cdx

> <SourceTag>
IA_108

> <Gold.Version>
5.2

> <Gold.Id.Protein>
6HGV|6HGV_protein|mol2

> <Gold.Goldscore.Fitness>
46.5443

> <Gold.Goldscore.Internal.Vdw>
-1.0504

> <Gold.Goldscore.Internal.Torsion>
-1.1666

> <Gold.Goldscore.External.Vdw>
30.0382

> <Gold.Goldscore.Internal.HBond>
0.0000

> <Gold.Goldscore.External.HBond>
5.9503

> <Gold.Goldscore.Internal.Correction>
-1.5085

> <Gold.Goldscore.Hbonds>
donor molecule, donor type, donor heavy atom, donor atom, acceptor molecule, acceptor atom, score
      P1  H  1247  3847       L1    13  0.89
      L1  H    11    28       P1   854  0.08
      L1  H    12    29       P1   854  0.61

> <Gold.Goldscore.Internal.Vdw.Weighted>
-1.0504

> <Gold.Goldscore.Internal.Torsion.Weighted>
-1.1666

> <Gold.Goldscore.External.Vdw.Weighted>
41.3026

> <Gold.Goldscore.Internal.HBond.Weighted>
0.0000

> <Gold.Goldscore.External.HBond.Weighted>
5.9503

> <Gold.Goldscore.Internal.Correction.Weighted>
-1.5085

> <Gold.Protein.RotatedTorsions>
[ 3781 1176 1175 1172 ] final   -1.64 input   60.00 | X-H torsion
[ 3847 1247 1246 1244 ] final -144.30 input   60.00 | X-H torsion
[ 4507 1931 1930 1928 ] final  137.05 input   60.00 | X-H torsion
[ 3677 1070 1069 1066 ] final -102.77 input   60.00 | X-H torsion
[ 3525  925  924  922 ] final -122.23 input   59.99 | X-H torsion
[ 4531 1957 1955 1953 ] final  107.99 input   60.00 | X-H torsion

> <Gold.Protein.ActiveResidues>
 PHE267  PRO268  MET310  ASP335  TRP336  MET339  TYR343  THR360  PRO361  ILE363
 PRO371  SER374  ILE375  ASN378  PHE381  TYR383  GLN384  PHE387  LEU408  LEU417
 MET419  LEU428  TYR466  MET469  ASN472  ASP496  VAL498  LEU499  MET503  HIS524
 TRP525

> <Gold.Protein.RotatedAtoms>
   -2.9890  -29.9454  -29.0065 H   0  0  0  0  0  0  0  0  0  0  0  0  # atno 3525 bound_to 925
  -11.6950  -23.7347  -31.4254 H   0  0  0  0  0  0  0  0  0  0  0  0  # atno 3677 bound_to 1070
  -10.7939  -37.2245  -33.6927 H   0  0  0  0  0  0  0  0  0  0  0  0  # atno 3781 bound_to 1176
  -15.1803  -27.2063  -37.8410 H   0  0  0  0  0  0  0  0  0  0  0  0  # atno 3847 bound_to 1247
  -12.5121  -23.8232  -39.6022 H   0  0  0  0  0  0  0  0  0  0  0  0  # atno 4507 bound_to 1931
   -2.5611  -33.9842  -36.7709 H   0  0  0  0  0  0  0  0  0  0  0  0  # atno 4531 bound_to 1957
   -9.4493  -36.3089  -33.7339 LP  0  0  0  0  0  0  0  0  0  0  0  0  # atno 5205 bound_to 1176
   -9.8622  -37.0972  -32.3647 LP  0  0  0  0  0  0  0  0  0  0  0  0  # atno 5206 bound_to 1176
  -14.4255  -28.6262  -37.5914 LP  0  0  0  0  0  0  0  0  0  0  0  0  # atno 5215 bound_to 1247
  -15.9587  -28.4108  -37.0720 LP  0  0  0  0  0  0  0  0  0  0  0  0  # atno 5216 bound_to 1247
  -13.0737  -25.1885  -38.9177 LP  0  0  0  0  0  0  0  0  0  0  0  0  # atno 5217 bound_to 1931
  -13.6129  -24.7277  -40.3886 LP  0  0  0  0  0  0  0  0  0  0  0  0  # atno 5218 bound_to 1931
  -11.3635  -22.2846  -30.7656 LP  0  0  0  0  0  0  0  0  0  0  0  0  # atno 5224 bound_to 1070
  -12.7974  -23.0092  -30.4733 LP  0  0  0  0  0  0  0  0  0  0  0  0  # atno 5225 bound_to 1070

$$$$
IA_108.cdx|SeH_inactivess_minimized|sdf|10|dock10
  -GOLD-   4172118453D 1   1.00000     0.00000

 29 29  0  0  0  0  0  0  0  0  1 V2000
  -15.8449  -24.6520  -40.6837 C   0  0  0  0  0  0  0  0  0  0  0  0
  -16.0449  -24.8578  -39.5180 C   0  0  0  0  0  0  0  0  0  0  0  0
  -13.9239  -25.5201  -37.4513 C   0  0  0  0  0  0  0  0  0  0  0  0
  -11.2367  -26.4881  -33.6921 C   0  0  0  0  0  0  0  0  0  0  0  0
  -11.1922  -25.0066  -34.0571 C   0  0  0  0  0  0  0  0  0  0  0  0
  -12.0933  -27.2898  -34.6684 C   0  0  0  0  0  0  0  0  0  0  0  0
  -10.7488  -24.7971  -35.5056 C   0  0  0  0  0  0  0  0  0  0  0  0
  -11.6476  -27.0750  -36.1154 C   0  0  0  0  0  0  0  0  0  0  0  0
  -11.5950  -25.5926  -36.5085 C   0  0  0  0  0  0  0  0  0  0  0  0
  -16.2942  -25.1080  -38.0962 C   0  0  0  0  0  0  0  0  0  0  0  0
  -12.9490  -25.0391  -36.5809 N   0  0  0  0  0  0  0  0  0  0  0  0
  -15.1170  -24.8151  -37.3130 N   0  0  0  0  0  0  0  0  0  0  0  0
  -13.7549  -26.4485  -38.2407 O   0  0  0  0  0  0  0  0  0  0  0  0
  -15.6672  -24.4699  -41.7179 H   0  0  0  0  0  0  0  0  0  0  0  0
  -10.2180  -26.8944  -33.6760 H   0  0  0  0  0  0  0  0  0  0  0  0
  -11.6396  -26.6009  -32.6769 H   0  0  0  0  0  0  0  0  0  0  0  0
  -12.1810  -24.5598  -33.9071 H   0  0  0  0  0  0  0  0  0  0  0  0
  -10.4993  -24.4854  -33.3857 H   0  0  0  0  0  0  0  0  0  0  0  0
  -12.0278  -28.3562  -34.4220 H   0  0  0  0  0  0  0  0  0  0  0  0
  -13.1441  -27.0000  -34.5607 H   0  0  0  0  0  0  0  0  0  0  0  0
  -10.7955  -23.7212  -35.7491 H   0  0  0  0  0  0  0  0  0  0  0  0
   -9.6867  -25.0776  -35.6056 H   0  0  0  0  0  0  0  0  0  0  0  0
  -10.6571  -27.5374  -36.2640 H   0  0  0  0  0  0  0  0  0  0  0  0
  -12.3319  -27.6162  -36.7920 H   0  0  0  0  0  0  0  0  0  0  0  0
  -11.1747  -25.4915  -37.5058 H   0  0  0  0  0  0  0  0  0  0  0  0
  -16.5782  -26.1530  -37.9380 H   0  0  0  0  0  0  0  0  0  0  0  0
  -17.1236  -24.4859  -37.7452 H   0  0  0  0  0  0  0  0  0  0  0  0
  -13.1885  -24.2667  -35.9664 H   0  0  0  0  0  0  0  0  0  0  0  0
  -15.1787  -24.0934  -36.6018 H   0  0  0  0  0  0  0  0  0  0  0  0
  1  2  3  0  0  0  0
  2 10  1  0  0  0  0
  3 11  1  0  0  0  0
  3 12  1  0  0  0  0
  3 13  2  0  0  0  0
  4  5  1  0  0  0  0
  4  6  1  0  0  0  0
  5  7  1  0  0  0  0
  6  8  1  0  0  0  0
  7  9  1  0  0  0  0
  8  9  1  0  0  0  0
  9 11  1  0  0  0  0
 10 12  1  0  0  0  0
  1 14  1  0  0  0  0
  4 15  1  0  0  0  0
  4 16  1  0  0  0  0
  5 17  1  0  0  0  0
  5 18  1  0  0  0  0
  6 19  1  0  0  0  0
  6 20  1  0  0  0  0
  7 21  1  0  0  0  0
  7 22  1  0  0  0  0
  8 23  1  0  0  0  0
  8 24  1  0  0  0  0
  9 25  1  0  0  0  0
 10 26  1  0  0  0  0
 10 27  1  0  0  0  0
 11 28  1  0  0  0  0
 12 29  1  0  0  0  0
M  END
> <Name>
IA_108.cdx

> <SourceTag>
IA_108

> <Gold.Version>
5.2

> <Gold.Id.Protein>
6HGV|6HGV_protein|mol2

> <Gold.Goldscore.Fitness>
46.0982

> <Gold.Goldscore.Internal.Vdw>
-0.8003

> <Gold.Goldscore.Internal.Torsion>
-1.2055

> <Gold.Goldscore.External.Vdw>
29.1863

> <Gold.Goldscore.Internal.HBond>
0.0000

> <Gold.Goldscore.External.HBond>
6.4643

> <Gold.Goldscore.Internal.Correction>
-1.5085

> <Gold.Goldscore.Hbonds>
donor molecule, donor type, donor heavy atom, donor atom, acceptor molecule, acceptor atom, score
      P1  H  1247  3847       L1    13  0.09
      L1  H    11    28       P1   853  0.85
      L1  H    12    29       P1   853  0.20

> <Gold.Goldscore.Internal.Vdw.Weighted>
-0.8003

> <Gold.Goldscore.Internal.Torsion.Weighted>
-1.2055

> <Gold.Goldscore.External.Vdw.Weighted>
40.1312

> <Gold.Goldscore.Internal.HBond.Weighted>
0.0000

> <Gold.Goldscore.External.HBond.Weighted>
6.4643

> <Gold.Goldscore.Internal.Correction.Weighted>
-1.5085

> <Gold.Protein.RotatedTorsions>
[ 3781 1176 1175 1172 ] final  -40.38 input   60.00 | X-H torsion
[ 3847 1247 1246 1244 ] final  147.82 input   60.00 | X-H torsion
[ 4507 1931 1930 1928 ] final  120.69 input   60.00 | X-H torsion
[ 3677 1070 1069 1066 ] final  -71.13 input   60.00 | X-H torsion
[ 3525  925  924  922 ] final  145.70 input   59.99 | X-H torsion
[ 4531 1957 1955 1953 ] final   39.49 input   60.00 | X-H torsion

> <Gold.Protein.ActiveResidues>
 PHE267  PRO268  MET310  ASP335  TRP336  MET339  TYR343  THR360  PRO361  ILE363
 PRO371  SER374  ILE375  ASN378  PHE381  TYR383  GLN384  PHE387  LEU408  LEU417
 MET419  LEU428  TYR466  MET469  ASN472  ASP496  VAL498  LEU499  MET503  HIS524
 TRP525

> <Gold.Protein.RotatedAtoms>
   -2.0561  -30.2682  -29.9238 H   0  0  0  0  0  0  0  0  0  0  0  0  # atno 3525 bound_to 925
  -12.1643  -23.8452  -31.2576 H   0  0  0  0  0  0  0  0  0  0  0  0  # atno 3677 bound_to 1070
  -10.4790  -36.8656  -34.0899 H   0  0  0  0  0  0  0  0  0  0  0  0  # atno 3781 bound_to 1176
  -14.3712  -27.8652  -37.9065 H   0  0  0  0  0  0  0  0  0  0  0  0  # atno 3847 bound_to 1247
  -12.4474  -23.9282  -39.3661 H   0  0  0  0  0  0  0  0  0  0  0  0  # atno 4507 bound_to 1931
   -3.0976  -33.0847  -36.6534 H   0  0  0  0  0  0  0  0  0  0  0  0  # atno 4531 bound_to 1957
   -9.2396  -36.3878  -33.1499 LP  0  0  0  0  0  0  0  0  0  0  0  0  # atno 5205 bound_to 1176
  -10.3889  -37.3798  -32.5486 LP  0  0  0  0  0  0  0  0  0  0  0  0  # atno 5206 bound_to 1176
  -15.3177  -28.9328  -37.1239 LP  0  0  0  0  0  0  0  0  0  0  0  0  # atno 5215 bound_to 1247
  -15.8813  -27.4406  -37.4736 LP  0  0  0  0  0  0  0  0  0  0  0  0  # atno 5216 bound_to 1247
  -13.2527  -25.3119  -39.0748 LP  0  0  0  0  0  0  0  0  0  0  0  0  # atno 5217 bound_to 1931
  -13.4991  -24.4986  -40.4692 LP  0  0  0  0  0  0  0  0  0  0  0  0  # atno 5218 bound_to 1931
  -11.1168  -22.6134  -31.0742 LP  0  0  0  0  0  0  0  0  0  0  0  0  # atno 5224 bound_to 1070
  -12.5715  -22.5690  -30.3336 LP  0  0  0  0  0  0  0  0  0  0  0  0  # atno 5225 bound_to 1070

$$$$
IA_108.cdx|SeH_inactivess_minimized|sdf|10|dock1
  -GOLD-   4172118443D 1   1.00000     0.00000

 29 29  0  0  0  0  0  0  0  0  1 V2000
  -18.3982  -25.2700  -36.3649 C   0  0  0  0  0  0  0  0  0  0  0  0
  -17.4446  -25.2155  -37.0923 C   0  0  0  0  0  0  0  0  0  0  0  0
  -13.9070  -25.6058  -37.3627 C   0  0  0  0  0  0  0  0  0  0  0  0
  -11.1791  -26.5637  -33.6311 C   0  0  0  0  0  0  0  0  0  0  0  0
  -11.1059  -25.0911  -34.0261 C   0  0  0  0  0  0  0  0  0  0  0  0
  -12.0710  -27.3636  -34.5769 C   0  0  0  0  0  0  0  0  0  0  0  0
  -10.6826  -24.9204  -35.4856 C   0  0  0  0  0  0  0  0  0  0  0  0
  -11.6451  -27.1877  -36.0351 C   0  0  0  0  0  0  0  0  0  0  0  0
  -11.5643  -25.7149  -36.4583 C   0  0  0  0  0  0  0  0  0  0  0  0
  -16.2777  -25.1501  -37.9757 C   0  0  0  0  0  0  0  0  0  0  0  0
  -12.9059  -25.1306  -36.5191 N   0  0  0  0  0  0  0  0  0  0  0  0
  -15.0804  -24.8697  -37.2189 N   0  0  0  0  0  0  0  0  0  0  0  0
  -13.7737  -26.5538  -38.1355 O   0  0  0  0  0  0  0  0  0  0  0  0
  -19.2443  -25.3188  -35.7200 H   0  0  0  0  0  0  0  0  0  0  0  0
  -10.1702  -26.9939  -33.6238 H   0  0  0  0  0  0  0  0  0  0  0  0
  -11.5672  -26.6471  -32.6072 H   0  0  0  0  0  0  0  0  0  0  0  0
  -12.0812  -24.6180  -33.8685 H   0  0  0  0  0  0  0  0  0  0  0  0
  -10.3896  -24.5737  -33.3767 H   0  0  0  0  0  0  0  0  0  0  0  0
  -12.0264  -28.4262  -34.3105 H   0  0  0  0  0  0  0  0  0  0  0  0
  -13.1126  -27.0467  -34.4575 H   0  0  0  0  0  0  0  0  0  0  0  0
  -10.7081  -23.8486  -35.7496 H   0  0  0  0  0  0  0  0  0  0  0  0
   -9.6293  -25.2281  -35.5977 H   0  0  0  0  0  0  0  0  0  0  0  0
  -10.6684  -27.6764  -36.1909 H   0  0  0  0  0  0  0  0  0  0  0  0
  -12.3534  -27.7254  -36.6894 H   0  0  0  0  0  0  0  0  0  0  0  0
  -11.1588  -25.6432  -37.4643 H   0  0  0  0  0  0  0  0  0  0  0  0
  -16.4152  -24.3693  -38.7301 H   0  0  0  0  0  0  0  0  0  0  0  0
  -16.1541  -26.1000  -38.5054 H   0  0  0  0  0  0  0  0  0  0  0  0
  -13.1164  -24.3404  -35.9168 H   0  0  0  0  0  0  0  0  0  0  0  0
  -15.1127  -24.1324  -36.5218 H   0  0  0  0  0  0  0  0  0  0  0  0
  1  2  3  0  0  0  0
  2 10  1  0  0  0  0
  3 11  1  0  0  0  0
  3 12  1  0  0  0  0
  3 13  2  0  0  0  0
  4  5  1  0  0  0  0
  4  6  1  0  0  0  0
  5  7  1  0  0  0  0
  6  8  1  0  0  0  0
  7  9  1  0  0  0  0
  8  9  1  0  0  0  0
  9 11  1  0  0  0  0
 10 12  1  0  0  0  0
  1 14  1  0  0  0  0
  4 15  1  0  0  0  0
  4 16  1  0  0  0  0
  5 17  1  0  0  0  0
  5 18  1  0  0  0  0
  6 19  1  0  0  0  0
  6 20  1  0  0  0  0
  7 21  1  0  0  0  0
  7 22  1  0  0  0  0
  8 23  1  0  0  0  0
  8 24  1  0  0  0  0
  9 25  1  0  0  0  0
 10 26  1  0  0  0  0
 10 27  1  0  0  0  0
 11 28  1  0  0  0  0
 12 29  1  0  0  0  0
M  END
> <Name>
IA_108.cdx

> <SourceTag>
IA_108

> <Gold.Version>
5.2

> <Gold.Id.Protein>
6HGV|6HGV_protein|mol2

> <Gold.Goldscore.Fitness>
45.3069

> <Gold.Goldscore.Internal.Vdw>
-1.3695

> <Gold.Goldscore.Internal.Torsion>
-1.2291

> <Gold.Goldscore.External.Vdw>
29.2865

> <Gold.Goldscore.Internal.HBond>
0.0000

> <Gold.Goldscore.External.HBond>
6.1238

> <Gold.Goldscore.Internal.Correction>
-1.5128

> <Gold.Goldscore.Hbonds>
donor molecule, donor type, donor heavy atom, donor atom, acceptor molecule, acceptor atom, score
      L1  H    11    28       P1   853  0.74
      L1  H    12    29       P1   853  0.28

> <Gold.Goldscore.Internal.Vdw.Weighted>
-1.3695

> <Gold.Goldscore.Internal.Torsion.Weighted>
-1.2291

> <Gold.Goldscore.External.Vdw.Weighted>
40.2690

> <Gold.Goldscore.Internal.HBond.Weighted>
0.0000

> <Gold.Goldscore.External.HBond.Weighted>
6.1238

> <Gold.Goldscore.Internal.Correction.Weighted>
-1.5128

> <Gold.Protein.RotatedTorsions>
[ 3781 1176 1175 1172 ] final   96.11 input   60.00 | X-H torsion
[ 3847 1247 1246 1244 ] final  -21.58 input   60.00 | X-H torsion
[ 4507 1931 1930 1928 ] final  102.59 input   60.00 | X-H torsion
[ 3677 1070 1069 1066 ] final  -96.20 input   60.00 | X-H torsion
[ 3525  925  924  922 ] final  100.39 input   59.99 | X-H torsion
[ 4531 1957 1955 1953 ] final  116.83 input   60.00 | X-H torsion

> <Gold.Protein.ActiveResidues>
 PHE267  PRO268  MET310  ASP335  TRP336  MET339  TYR343  THR360  PRO361  ILE363
 PRO371  SER374  ILE375  ASN378  PHE381  TYR383  GLN384  PHE387  LEU408  LEU417
 MET419  LEU428  TYR466  MET469  ASN472  ASP496  VAL498  LEU499  MET503  HIS524
 TRP525

> <Gold.Protein.RotatedAtoms>
   -2.2790  -30.1100  -30.5913 H   0  0  0  0  0  0  0  0  0  0  0  0  # atno 3525 bound_to 925
  -11.7907  -23.7774  -31.4027 H   0  0  0  0  0  0  0  0  0  0  0  0  # atno 3677 bound_to 1070
  -10.1685  -37.2802  -32.4298 H   0  0  0  0  0  0  0  0  0  0  0  0  # atno 3781 bound_to 1176
  -15.9327  -28.4477  -37.0708 H   0  0  0  0  0  0  0  0  0  0  0  0  # atno 3847 bound_to 1247
  -12.4340  -24.1053  -39.1312 H   0  0  0  0  0  0  0  0  0  0  0  0  # atno 4507 bound_to 1931
   -2.4280  -34.0334  -36.7971 H   0  0  0  0  0  0  0  0  0  0  0  0  # atno 4531 bound_to 1957
  -10.6534  -37.0267  -33.9623 LP  0  0  0  0  0  0  0  0  0  0  0  0  # atno 5205 bound_to 1176
   -9.2879  -36.3233  -33.4081 LP  0  0  0  0  0  0  0  0  0  0  0  0  # atno 5206 bound_to 1176
  -15.2214  -27.1944  -37.8267 LP  0  0  0  0  0  0  0  0  0  0  0  0  # atno 5215 bound_to 1247
  -14.4050  -28.5924  -37.6124 LP  0  0  0  0  0  0  0  0  0  0  0  0  # atno 5216 bound_to 1247
  -13.4325  -25.3789  -39.3009 LP  0  0  0  0  0  0  0  0  0  0  0  0  # atno 5217 bound_to 1931
  -13.3327  -24.2533  -40.4797 LP  0  0  0  0  0  0  0  0  0  0  0  0  # atno 5218 bound_to 1931
  -11.2945  -22.3375  -30.8296 LP  0  0  0  0  0  0  0  0  0  0  0  0  # atno 5224 bound_to 1070
  -12.7700  -22.9132  -30.4321 LP  0  0  0  0  0  0  0  0  0  0  0  0  # atno 5225 bound_to 1070

$$$$
IA_108.cdx|SeH_inactivess_minimized|sdf|10|dock5
  -GOLD-   4172118443D 1   1.00000     0.00000

 29 29  0  0  0  0  0  0  0  0  1 V2000
  -15.8149  -24.7734  -40.5922 C   0  0  0  0  0  0  0  0  0  0  0  0
  -16.0568  -24.8155  -39.4170 C   0  0  0  0  0  0  0  0  0  0  0  0
  -13.9838  -25.3937  -37.4000 C   0  0  0  0  0  0  0  0  0  0  0  0
  -11.2664  -26.6068  -33.7327 C   0  0  0  0  0  0  0  0  0  0  0  0
  -11.1705  -25.1156  -34.0440 C   0  0  0  0  0  0  0  0  0  0  0  0
  -12.1724  -27.3378  -34.7198 C   0  0  0  0  0  0  0  0  0  0  0  0
  -10.7470  -24.8693  -35.4927 C   0  0  0  0  0  0  0  0  0  0  0  0
  -11.7463  -27.0865  -36.1669 C   0  0  0  0  0  0  0  0  0  0  0  0
  -11.6429  -25.5935  -36.5064 C   0  0  0  0  0  0  0  0  0  0  0  0
  -16.3472  -24.8650  -37.9819 C   0  0  0  0  0  0  0  0  0  0  0  0
  -12.9752  -24.9857  -36.5306 N   0  0  0  0  0  0  0  0  0  0  0  0
  -15.1455  -24.6492  -37.2110 N   0  0  0  0  0  0  0  0  0  0  0  0
  -13.8656  -26.2956  -38.2284 O   0  0  0  0  0  0  0  0  0  0  0  0
  -15.6007  -24.7356  -41.6348 H   0  0  0  0  0  0  0  0  0  0  0  0
  -10.2644  -27.0526  -33.7524 H   0  0  0  0  0  0  0  0  0  0  0  0
  -11.6539  -26.7418  -32.7142 H   0  0  0  0  0  0  0  0  0  0  0  0
  -12.1379  -24.6368  -33.8574 H   0  0  0  0  0  0  0  0  0  0  0  0
  -10.4449  -24.6470  -33.3684 H   0  0  0  0  0  0  0  0  0  0  0  0
  -12.1443  -28.4143  -34.5140 H   0  0  0  0  0  0  0  0  0  0  0  0
  -13.2088  -27.0118  -34.5800 H   0  0  0  0  0  0  0  0  0  0  0  0
  -10.7560  -23.7841  -35.6957 H   0  0  0  0  0  0  0  0  0  0  0  0
   -9.6989  -25.1867  -35.6247 H   0  0  0  0  0  0  0  0  0  0  0  0
  -10.7779  -27.5809  -36.3526 H   0  0  0  0  0  0  0  0  0  0  0  0
  -12.4642  -27.5751  -36.8486 H   0  0  0  0  0  0  0  0  0  0  0  0
  -11.2381  -25.4715  -37.5078 H   0  0  0  0  0  0  0  0  0  0  0  0
  -16.7748  -25.8360  -37.7137 H   0  0  0  0  0  0  0  0  0  0  0  0
  -17.0841  -24.0987  -37.7213 H   0  0  0  0  0  0  0  0  0  0  0  0
  -13.1732  -24.2299  -35.8817 H   0  0  0  0  0  0  0  0  0  0  0  0
  -15.1660  -23.9547  -36.4709 H   0  0  0  0  0  0  0  0  0  0  0  0
  1  2  3  0  0  0  0
  2 10  1  0  0  0  0
  3 11  1  0  0  0  0
  3 12  1  0  0  0  0
  3 13  2  0  0  0  0
  4  5  1  0  0  0  0
  4  6  1  0  0  0  0
  5  7  1  0  0  0  0
  6  8  1  0  0  0  0
  7  9  1  0  0  0  0
  8  9  1  0  0  0  0
  9 11  1  0  0  0  0
 10 12  1  0  0  0  0
  1 14  1  0  0  0  0
  4 15  1  0  0  0  0
  4 16  1  0  0  0  0
  5 17  1  0  0  0  0
  5 18  1  0  0  0  0
  6 19  1  0  0  0  0
  6 20  1  0  0  0  0
  7 21  1  0  0  0  0
  7 22  1  0  0  0  0
  8 23  1  0  0  0  0
  8 24  1  0  0  0  0
  9 25  1  0  0  0  0
 10 26  1  0  0  0  0
 10 27  1  0  0  0  0
 11 28  1  0  0  0  0
 12 29  1  0  0  0  0
M  END
> <Name>
IA_108.cdx

> <SourceTag>
IA_108

> <Gold.Version>
5.2

> <Gold.Id.Protein>
6HGV|6HGV_protein|mol2

> <Gold.Goldscore.Fitness>
45.2825

> <Gold.Goldscore.Internal.Vdw>
-0.8265

> <Gold.Goldscore.Internal.Torsion>
-1.1800

> <Gold.Goldscore.External.Vdw>
29.1140

> <Gold.Goldscore.Internal.HBond>
0.0000

> <Gold.Goldscore.External.HBond>
5.7489

> <Gold.Goldscore.Internal.Correction>
-1.5085

> <Gold.Goldscore.Hbonds>
donor molecule, donor type, donor heavy atom, donor atom, acceptor molecule, acceptor atom, score
      P1  H  1247  3847       L1    13  0.22
      L1  H    11    28       P1   853  0.65
      L1  H    12    29       P1   853  0.23

> <Gold.Goldscore.Internal.Vdw.Weighted>
-0.8265

> <Gold.Goldscore.Internal.Torsion.Weighted>
-1.1800

> <Gold.Goldscore.External.Vdw.Weighted>
40.0317

> <Gold.Goldscore.Internal.HBond.Weighted>
0.0000

> <Gold.Goldscore.External.HBond.Weighted>
5.7489

> <Gold.Goldscore.Internal.Correction.Weighted>
-1.5085

> <Gold.Protein.RotatedTorsions>
[ 3781 1176 1175 1172 ] final  173.44 input   60.00 | X-H torsion
[ 3847 1247 1246 1244 ] final  169.11 input   60.00 | X-H torsion
[ 4507 1931 1930 1928 ] final  119.77 input   60.00 | X-H torsion
[ 3677 1070 1069 1066 ] final  -92.91 input   60.00 | X-H torsion
[ 3525  925  924  922 ] final  -61.31 input   59.99 | X-H torsion
[ 4531 1957 1955 1953 ] final   91.91 input   60.00 | X-H torsion

> <Gold.Protein.ActiveResidues>
 PHE267  PRO268  MET310  ASP335  TRP336  MET339  TYR343  THR360  PRO361  ILE363
 PRO371  SER374  ILE375  ASN378  PHE381  TYR383  GLN384  PHE387  LEU408  LEU417
 MET419  LEU428  TYR466  MET469  ASN472  ASP496  VAL498  LEU499  MET503  HIS524
 TRP525

> <Gold.Protein.RotatedAtoms>
   -3.6980  -29.5887  -29.5272 H   0  0  0  0  0  0  0  0  0  0  0  0  # atno 3525 bound_to 925
  -11.8395  -23.7951  -31.3888 H   0  0  0  0  0  0  0  0  0  0  0  0  # atno 3677 bound_to 1070
   -9.3013  -36.5735  -32.7720 H   0  0  0  0  0  0  0  0  0  0  0  0  # atno 3781 bound_to 1176
  -14.5444  -27.5692  -37.9518 H   0  0  0  0  0  0  0  0  0  0  0  0  # atno 3847 bound_to 1247
  -12.4452  -23.9358  -39.3533 H   0  0  0  0  0  0  0  0  0  0  0  0  # atno 4507 bound_to 1931
   -2.7780  -33.8438  -36.7273 H   0  0  0  0  0  0  0  0  0  0  0  0  # atno 4531 bound_to 1957
  -10.6697  -37.4494  -32.8628 LP  0  0  0  0  0  0  0  0  0  0  0  0  # atno 5205 bound_to 1176
  -10.1449  -36.6123  -34.1630 LP  0  0  0  0  0  0  0  0  0  0  0  0  # atno 5206 bound_to 1176
  -14.9909  -28.9631  -37.2406 LP  0  0  0  0  0  0  0  0  0  0  0  0  # atno 5215 bound_to 1247
  -16.0337  -27.7085  -37.3112 LP  0  0  0  0  0  0  0  0  0  0  0  0  # atno 5216 bound_to 1247
  -13.2625  -25.3172  -39.0851 LP  0  0  0  0  0  0  0  0  0  0  0  0  # atno 5217 bound_to 1931
  -13.4915  -24.4857  -40.4718 LP  0  0  0  0  0  0  0  0  0  0  0  0  # atno 5218 bound_to 1931
  -11.2631  -22.3674  -30.8621 LP  0  0  0  0  0  0  0  0  0  0  0  0  # atno 5224 bound_to 1070
  -12.7522  -22.8655  -30.4136 LP  0  0  0  0  0  0  0  0  0  0  0  0  # atno 5225 bound_to 1070

$$$$
IA_108.cdx|SeH_inactivess_minimized|sdf|10|dock2
  -GOLD-   4172118443D 1   1.00000     0.00000

 29 29  0  0  0  0  0  0  0  0  1 V2000
  -18.2007  -23.2424  -38.1588 C   0  0  0  0  0  0  0  0  0  0  0  0
  -17.4626  -24.1835  -38.0544 C   0  0  0  0  0  0  0  0  0  0  0  0
  -14.1405  -25.5983  -37.4089 C   0  0  0  0  0  0  0  0  0  0  0  0
  -11.2374  -26.4682  -33.8110 C   0  0  0  0  0  0  0  0  0  0  0  0
  -11.2983  -24.9783  -34.1373 C   0  0  0  0  0  0  0  0  0  0  0  0
  -12.0837  -27.2972  -34.7735 C   0  0  0  0  0  0  0  0  0  0  0  0
  -10.9294  -24.7062  -35.5962 C   0  0  0  0  0  0  0  0  0  0  0  0
  -11.7126  -27.0198  -36.2309 C   0  0  0  0  0  0  0  0  0  0  0  0
  -11.7667  -25.5278  -36.5854 C   0  0  0  0  0  0  0  0  0  0  0  0
  -16.5611  -25.3318  -37.9323 C   0  0  0  0  0  0  0  0  0  0  0  0
  -13.1537  -25.0574  -36.5884 N   0  0  0  0  0  0  0  0  0  0  0  0
  -15.3656  -24.9666  -37.2094 N   0  0  0  0  0  0  0  0  0  0  0  0
  -13.9558  -26.5162  -38.2070 O   0  0  0  0  0  0  0  0  0  0  0  0
  -18.8551  -22.4072  -38.2510 H   0  0  0  0  0  0  0  0  0  0  0  0
  -10.1961  -26.8110  -33.8468 H   0  0  0  0  0  0  0  0  0  0  0  0
  -11.5900  -26.6306  -32.7838 H   0  0  0  0  0  0  0  0  0  0  0  0
  -12.3053  -24.5974  -33.9356 H   0  0  0  0  0  0  0  0  0  0  0  0
  -10.6110  -24.4319  -33.4803 H   0  0  0  0  0  0  0  0  0  0  0  0
  -11.9432  -28.3632  -34.5588 H   0  0  0  0  0  0  0  0  0  0  0  0
  -13.1448  -27.0757  -34.6159 H   0  0  0  0  0  0  0  0  0  0  0  0
  -11.0515  -23.6296  -35.8084 H   0  0  0  0  0  0  0  0  0  0  0  0
   -9.8573  -24.9179  -35.7463 H   0  0  0  0  0  0  0  0  0  0  0  0
  -10.7029  -27.4162  -36.4315 H   0  0  0  0  0  0  0  0  0  0  0  0
  -12.3903  -27.5854  -36.8939 H   0  0  0  0  0  0  0  0  0  0  0  0
  -11.3953  -25.3763  -37.5958 H   0  0  0  0  0  0  0  0  0  0  0  0
  -16.2808  -25.7023  -38.9232 H   0  0  0  0  0  0  0  0  0  0  0  0
  -17.0637  -26.1496  -37.4062 H   0  0  0  0  0  0  0  0  0  0  0  0
  -13.4082  -24.2998  -35.9617 H   0  0  0  0  0  0  0  0  0  0  0  0
  -15.4348  -24.2487  -36.4951 H   0  0  0  0  0  0  0  0  0  0  0  0
  1  2  3  0  0  0  0
  2 10  1  0  0  0  0
  3 11  1  0  0  0  0
  3 12  1  0  0  0  0
  3 13  2  0  0  0  0
  4  5  1  0  0  0  0
  4  6  1  0  0  0  0
  5  7  1  0  0  0  0
  6  8  1  0  0  0  0
  7  9  1  0  0  0  0
  8  9  1  0  0  0  0
  9 11  1  0  0  0  0
 10 12  1  0  0  0  0
  1 14  1  0  0  0  0
  4 15  1  0  0  0  0
  4 16  1  0  0  0  0
  5 17  1  0  0  0  0
  5 18  1  0  0  0  0
  6 19  1  0  0  0  0
  6 20  1  0  0  0  0
  7 21  1  0  0  0  0
  7 22  1  0  0  0  0
  8 23  1  0  0  0  0
  8 24  1  0  0  0  0
  9 25  1  0  0  0  0
 10 26  1  0  0  0  0
 10 27  1  0  0  0  0
 11 28  1  0  0  0  0
 12 29  1  0  0  0  0
M  END
> <Name>
IA_108.cdx

> <SourceTag>
IA_108

> <Gold.Version>
5.2

> <Gold.Id.Protein>
6HGV|6HGV_protein|mol2

> <Gold.Goldscore.Fitness>
44.4534

> <Gold.Goldscore.Internal.Vdw>
-1.3615

> <Gold.Goldscore.Internal.Torsion>
-1.1532

> <Gold.Goldscore.External.Vdw>
28.5555

> <Gold.Goldscore.Internal.HBond>
0.0000

> <Gold.Goldscore.External.HBond>
6.1916

> <Gold.Goldscore.Internal.Correction>
-1.5128

> <Gold.Goldscore.Hbonds>
donor molecule, donor type, donor heavy atom, donor atom, acceptor molecule, acceptor atom, score
      L1  H    11    28       P1   853  0.95
      L1  H    12    29       P1   853  0.08

> <Gold.Goldscore.Internal.Vdw.Weighted>
-1.3615

> <Gold.Goldscore.Internal.Torsion.Weighted>
-1.1532

> <Gold.Goldscore.External.Vdw.Weighted>
39.2638

> <Gold.Goldscore.Internal.HBond.Weighted>
0.0000

> <Gold.Goldscore.External.HBond.Weighted>
6.1916

> <Gold.Goldscore.Internal.Correction.Weighted>
-1.5128

> <Gold.Protein.RotatedTorsions>
[ 3781 1176 1175 1172 ] final  -41.30 input   60.00 | X-H torsion
[ 3847 1247 1246 1244 ] final  -35.50 input   60.00 | X-H torsion
[ 4507 1931 1930 1928 ] final  127.31 input   60.00 | X-H torsion
[ 3677 1070 1069 1066 ] final -115.23 input   60.00 | X-H torsion
[ 3525  925  924  922 ] final -124.47 input   59.99 | X-H torsion
[ 4531 1957 1955 1953 ] final   39.51 input   60.00 | X-H torsion

> <Gold.Protein.ActiveResidues>
 PHE267  PRO268  MET310  ASP335  TRP336  MET339  TYR343  THR360  PRO361  ILE363
 PRO371  SER374  ILE375  ASN378  PHE381  TYR383  GLN384  PHE387  LEU408  LEU417
 MET419  LEU428  TYR466  MET469  ASN472  ASP496  VAL498  LEU499  MET503  HIS524
 TRP525

> <Gold.Protein.RotatedAtoms>
   -2.9557  -29.9600  -29.0053 H   0  0  0  0  0  0  0  0  0  0  0  0  # atno 3525 bound_to 925
  -11.5236  -23.6279  -31.4489 H   0  0  0  0  0  0  0  0  0  0  0  0  # atno 3677 bound_to 1070
  -10.4684  -36.8565  -34.0954 H   0  0  0  0  0  0  0  0  0  0  0  0  # atno 3781 bound_to 1176
  -16.0235  -28.2440  -37.1131 H   0  0  0  0  0  0  0  0  0  0  0  0  # atno 3847 bound_to 1247
  -12.4678  -23.8788  -39.4601 H   0  0  0  0  0  0  0  0  0  0  0  0  # atno 4507 bound_to 1931
   -3.0976  -33.0850  -36.6534 H   0  0  0  0  0  0  0  0  0  0  0  0  # atno 4531 bound_to 1957
   -9.2388  -36.3926  -33.1356 LP  0  0  0  0  0  0  0  0  0  0  0  0  # atno 5205 bound_to 1176
  -10.4004  -37.3841  -32.5575 LP  0  0  0  0  0  0  0  0  0  0  0  0  # atno 5206 bound_to 1176
  -15.0076  -27.2403  -37.8931 LP  0  0  0  0  0  0  0  0  0  0  0  0  # atno 5215 bound_to 1247
  -14.5275  -28.7517  -37.5034 LP  0  0  0  0  0  0  0  0  0  0  0  0  # atno 5216 bound_to 1247
  -13.1813  -25.2687  -39.0049 LP  0  0  0  0  0  0  0  0  0  0  0  0  # atno 5217 bound_to 1931
  -13.5499  -24.5916  -40.4445 LP  0  0  0  0  0  0  0  0  0  0  0  0  # atno 5218 bound_to 1931
  -11.5148  -22.2108  -30.6491 LP  0  0  0  0  0  0  0  0  0  0  0  0  # atno 5224 bound_to 1070
  -12.8187  -23.1905  -30.5660 LP  0  0  0  0  0  0  0  0  0  0  0  0  # atno 5225 bound_to 1070

$$$$
IA_108.cdx|SeH_inactivess_minimized|sdf|10|dock4
  -GOLD-   4172118443D 1   1.00000     0.00000

 29 29  0  0  0  0  0  0  0  0  1 V2000
  -17.9602  -25.2215  -36.1307 C   0  0  0  0  0  0  0  0  0  0  0  0
  -17.0259  -25.0980  -36.8745 C   0  0  0  0  0  0  0  0  0  0  0  0
  -13.5671  -25.6166  -37.1847 C   0  0  0  0  0  0  0  0  0  0  0  0
  -10.9669  -26.8773  -33.4878 C   0  0  0  0  0  0  0  0  0  0  0  0
  -10.7499  -25.4101  -33.8487 C   0  0  0  0  0  0  0  0  0  0  0  0
  -11.9192  -27.5682  -34.4602 C   0  0  0  0  0  0  0  0  0  0  0  0
  -10.2950  -25.2489  -35.2998 C   0  0  0  0  0  0  0  0  0  0  0  0
  -11.4613  -27.4022  -35.9098 C   0  0  0  0  0  0  0  0  0  0  0  0
  -11.2364  -25.9349  -36.2988 C   0  0  0  0  0  0  0  0  0  0  0  0
  -15.8891  -24.9452  -37.7858 C   0  0  0  0  0  0  0  0  0  0  0  0
  -12.5159  -25.2247  -36.3595 N   0  0  0  0  0  0  0  0  0  0  0  0
  -14.6623  -24.7677  -37.0452 N   0  0  0  0  0  0  0  0  0  0  0  0
  -13.5343  -26.5874  -37.9396 O   0  0  0  0  0  0  0  0  0  0  0  0
  -18.7887  -25.3307  -35.4705 H   0  0  0  0  0  0  0  0  0  0  0  0
  -10.0034  -27.4014  -33.4805 H   0  0  0  0  0  0  0  0  0  0  0  0
  -11.3732  -26.9456  -32.4700 H   0  0  0  0  0  0  0  0  0  0  0  0
  -11.6778  -24.8501  -33.6900 H   0  0  0  0  0  0  0  0  0  0  0  0
   -9.9956  -24.9772  -33.1809 H   0  0  0  0  0  0  0  0  0  0  0  0
  -11.9786  -28.6358  -34.2174 H   0  0  0  0  0  0  0  0  0  0  0  0
  -12.9275  -27.1566  -34.3438 H   0  0  0  0  0  0  0  0  0  0  0  0
  -10.2158  -24.1741  -35.5397 H   0  0  0  0  0  0  0  0  0  0  0  0
   -9.2743  -25.6527  -35.4085 H   0  0  0  0  0  0  0  0  0  0  0  0
  -10.5336  -27.9779  -36.0671 H   0  0  0  0  0  0  0  0  0  0  0  0
  -12.2095  -27.8559  -36.5830 H   0  0  0  0  0  0  0  0  0  0  0  0
  -10.8141  -25.8803  -37.2989 H   0  0  0  0  0  0  0  0  0  0  0  0
  -16.0399  -24.0812  -38.4404 H   0  0  0  0  0  0  0  0  0  0  0  0
  -15.7987  -25.8292  -38.4250 H   0  0  0  0  0  0  0  0  0  0  0  0
  -12.6426  -24.4066  -35.7711 H   0  0  0  0  0  0  0  0  0  0  0  0
  -14.6157  -24.0178  -36.3626 H   0  0  0  0  0  0  0  0  0  0  0  0
  1  2  3  0  0  0  0
  2 10  1  0  0  0  0
  3 11  1  0  0  0  0
  3 12  1  0  0  0  0
  3 13  2  0  0  0  0
  4  5  1  0  0  0  0
  4  6  1  0  0  0  0
  5  7  1  0  0  0  0
  6  8  1  0  0  0  0
  7  9  1  0  0  0  0
  8  9  1  0  0  0  0
  9 11  1  0  0  0  0
 10 12  1  0  0  0  0
  1 14  1  0  0  0  0
  4 15  1  0  0  0  0
  4 16  1  0  0  0  0
  5 17  1  0  0  0  0
  5 18  1  0  0  0  0
  6 19  1  0  0  0  0
  6 20  1  0  0  0  0
  7 21  1  0  0  0  0
  7 22  1  0  0  0  0
  8 23  1  0  0  0  0
  8 24  1  0  0  0  0
  9 25  1  0  0  0  0
 10 26  1  0  0  0  0
 10 27  1  0  0  0  0
 11 28  1  0  0  0  0
 12 29  1  0  0  0  0
M  END
> <Name>
IA_108.cdx

> <SourceTag>
IA_108

> <Gold.Version>
5.2

> <Gold.Id.Protein>
6HGV|6HGV_protein|mol2

> <Gold.Goldscore.Fitness>
44.4353

> <Gold.Goldscore.Internal.Vdw>
-1.7557

> <Gold.Goldscore.Internal.Torsion>
-1.2089

> <Gold.Goldscore.External.Vdw>
28.7544

> <Gold.Goldscore.Internal.HBond>
0.0000

> <Gold.Goldscore.External.HBond>
6.3505

> <Gold.Goldscore.Internal.Correction>
-1.5121

> <Gold.Goldscore.Hbonds>
donor molecule, donor type, donor heavy atom, donor atom, acceptor molecule, acceptor atom, score
      P1  H  1247  3847       L1    13  0.20
      L1  H    11    28       P1   853  0.23
      L1  H    12    29       P1   853  0.76

> <Gold.Goldscore.Internal.Vdw.Weighted>
-1.7557

> <Gold.Goldscore.Internal.Torsion.Weighted>
-1.2089

> <Gold.Goldscore.External.Vdw.Weighted>
39.5373

> <Gold.Goldscore.Internal.HBond.Weighted>
0.0000

> <Gold.Goldscore.External.HBond.Weighted>
6.3505

> <Gold.Goldscore.Internal.Correction.Weighted>
-1.5121

> <Gold.Protein.RotatedTorsions>
[ 3781 1176 1175 1172 ] final -157.17 input   60.00 | X-H torsion
[ 3847 1247 1246 1244 ] final  150.24 input   60.00 | X-H torsion
[ 4507 1931 1930 1928 ] final  101.86 input   60.00 | X-H torsion
[ 3677 1070 1069 1066 ] final  -80.99 input   60.00 | X-H torsion
[ 3525  925  924  922 ] final  -87.10 input   59.99 | X-H torsion
[ 4531 1957 1955 1953 ] final   45.29 input   60.00 | X-H torsion

> <Gold.Protein.ActiveResidues>
 PHE267  PRO268  MET310  ASP335  TRP336  MET339  TYR343  THR360  PRO361  ILE363
 PRO371  SER374  ILE375  ASN378  PHE381  TYR383  GLN384  PHE387  LEU408  LEU417
 MET419  LEU428  TYR466  MET469  ASN472  ASP496  VAL498  LEU499  MET503  HIS524
 TRP525

> <Gold.Protein.RotatedAtoms>
   -3.4677  -29.7187  -29.2038 H   0  0  0  0  0  0  0  0  0  0  0  0  # atno 3525 bound_to 925
  -12.0182  -23.8372  -31.3249 H   0  0  0  0  0  0  0  0  0  0  0  0  # atno 3677 bound_to 1070
   -9.2482  -36.3773  -33.2012 H   0  0  0  0  0  0  0  0  0  0  0  0  # atno 3781 bound_to 1176
  -14.3856  -27.8293  -37.9146 H   0  0  0  0  0  0  0  0  0  0  0  0  # atno 3847 bound_to 1247
  -12.4348  -24.1135  -39.1226 H   0  0  0  0  0  0  0  0  0  0  0  0  # atno 4507 bound_to 1931
   -3.0978  -33.1794  -36.6550 H   0  0  0  0  0  0  0  0  0  0  0  0  # atno 4531 bound_to 1957
  -10.3482  -37.3636  -32.5192 LP  0  0  0  0  0  0  0  0  0  0  0  0  # atno 5205 bound_to 1176
  -10.5199  -36.8957  -34.0743 LP  0  0  0  0  0  0  0  0  0  0  0  0  # atno 5206 bound_to 1176
  -15.2806  -28.9424  -37.1348 LP  0  0  0  0  0  0  0  0  0  0  0  0  # atno 5215 bound_to 1247
  -15.9039  -27.4673  -37.4545 LP  0  0  0  0  0  0  0  0  0  0  0  0  # atno 5216 bound_to 1247
  -13.4391  -25.3800  -39.3109 LP  0  0  0  0  0  0  0  0  0  0  0  0  # atno 5217 bound_to 1931
  -13.3253  -24.2439  -40.4784 LP  0  0  0  0  0  0  0  0  0  0  0  0  # atno 5218 bound_to 1931
  -11.1692  -22.4926  -30.9796 LP  0  0  0  0  0  0  0  0  0  0  0  0  # atno 5224 bound_to 1070
  -12.6662  -22.6979  -30.3605 LP  0  0  0  0  0  0  0  0  0  0  0  0  # atno 5225 bound_to 1070

$$$$
IA_108.cdx|SeH_inactivess_minimized|sdf|10|dock6
  -GOLD-   4172118453D 1   1.00000     0.00000

 29 29  0  0  0  0  0  0  0  0  1 V2000
  -18.0840  -25.1952  -36.0963 C   0  0  0  0  0  0  0  0  0  0  0  0
  -17.1429  -25.1138  -36.8373 C   0  0  0  0  0  0  0  0  0  0  0  0
  -13.6522  -25.5991  -37.1462 C   0  0  0  0  0  0  0  0  0  0  0  0
  -11.0551  -26.8677  -33.4824 C   0  0  0  0  0  0  0  0  0  0  0  0
  -10.8889  -25.3809  -33.7852 C   0  0  0  0  0  0  0  0  0  0  0  0
  -11.9623  -27.5578  -34.4975 C   0  0  0  0  0  0  0  0  0  0  0  0
  -10.4149  -25.1484  -35.2204 C   0  0  0  0  0  0  0  0  0  0  0  0
  -11.4855  -27.3205  -35.9310 C   0  0  0  0  0  0  0  0  0  0  0  0
  -11.3109  -25.8322  -36.2617 C   0  0  0  0  0  0  0  0  0  0  0  0
  -15.9977  -25.0132  -37.7455 C   0  0  0  0  0  0  0  0  0  0  0  0
  -12.6158  -25.1697  -36.3210 N   0  0  0  0  0  0  0  0  0  0  0  0
  -14.7780  -24.7914  -37.0052 N   0  0  0  0  0  0  0  0  0  0  0  0
  -13.5839  -26.5673  -37.9023 O   0  0  0  0  0  0  0  0  0  0  0  0
  -18.9186  -25.2670  -35.4387 H   0  0  0  0  0  0  0  0  0  0  0  0
  -10.0722  -27.3545  -33.4757 H   0  0  0  0  0  0  0  0  0  0  0  0
  -11.4765  -26.9893  -32.4757 H   0  0  0  0  0  0  0  0  0  0  0  0
  -11.8406  -24.8630  -33.6240 H   0  0  0  0  0  0  0  0  0  0  0  0
  -10.1640  -24.9446  -33.0876 H   0  0  0  0  0  0  0  0  0  0  0  0
  -11.9845  -28.6352  -34.2951 H   0  0  0  0  0  0  0  0  0  0  0  0
  -12.9878  -27.1896  -34.3856 H   0  0  0  0  0  0  0  0  0  0  0  0
  -10.3733  -24.0632  -35.4193 H   0  0  0  0  0  0  0  0  0  0  0  0
   -9.3775  -25.5086  -35.3241 H   0  0  0  0  0  0  0  0  0  0  0  0
  -10.5334  -27.8540  -36.0913 H   0  0  0  0  0  0  0  0  0  0  0  0
  -12.2034  -27.7771  -36.6345 H   0  0  0  0  0  0  0  0  0  0  0  0
  -10.8733  -25.7243  -37.2508 H   0  0  0  0  0  0  0  0  0  0  0  0
  -16.1429  -24.1891  -38.4508 H   0  0  0  0  0  0  0  0  0  0  0  0
  -15.9009  -25.9330  -38.3310 H   0  0  0  0  0  0  0  0  0  0  0  0
  -12.7723  -24.3575  -35.7316 H   0  0  0  0  0  0  0  0  0  0  0  0
  -14.7588  -24.0411  -36.3218 H   0  0  0  0  0  0  0  0  0  0  0  0
  1  2  3  0  0  0  0
  2 10  1  0  0  0  0
  3 11  1  0  0  0  0
  3 12  1  0  0  0  0
  3 13  2  0  0  0  0
  4  5  1  0  0  0  0
  4  6  1  0  0  0  0
  5  7  1  0  0  0  0
  6  8  1  0  0  0  0
  7  9  1  0  0  0  0
  8  9  1  0  0  0  0
  9 11  1  0  0  0  0
 10 12  1  0  0  0  0
  1 14  1  0  0  0  0
  4 15  1  0  0  0  0
  4 16  1  0  0  0  0
  5 17  1  0  0  0  0
  5 18  1  0  0  0  0
  6 19  1  0  0  0  0
  6 20  1  0  0  0  0
  7 21  1  0  0  0  0
  7 22  1  0  0  0  0
  8 23  1  0  0  0  0
  8 24  1  0  0  0  0
  9 25  1  0  0  0  0
 10 26  1  0  0  0  0
 10 27  1  0  0  0  0
 11 28  1  0  0  0  0
 12 29  1  0  0  0  0
M  END
> <Name>
IA_108.cdx

> <SourceTag>
IA_108

> <Gold.Version>
5.2

> <Gold.Id.Protein>
6HGV|6HGV_protein|mol2

> <Gold.Goldscore.Fitness>
44.4266

> <Gold.Goldscore.Internal.Vdw>
-2.2425

> <Gold.Goldscore.Internal.Torsion>
-1.2183

> <Gold.Goldscore.External.Vdw>
29.4555

> <Gold.Goldscore.Internal.HBond>
0.0000

> <Gold.Goldscore.External.HBond>
5.8776

> <Gold.Goldscore.Internal.Correction>
-1.5085

> <Gold.Goldscore.Hbonds>
donor molecule, donor type, donor heavy atom, donor atom, acceptor molecule, acceptor atom, score
      P1  H  1247  3847       L1    13  0.22
      L1  H    11    28       P1   853  0.32
      L1  H    12    29       P1   853  0.58

> <Gold.Goldscore.Internal.Vdw.Weighted>
-2.2425

> <Gold.Goldscore.Internal.Torsion.Weighted>
-1.2183

> <Gold.Goldscore.External.Vdw.Weighted>
40.5013

> <Gold.Goldscore.Internal.HBond.Weighted>
0.0000

> <Gold.Goldscore.External.HBond.Weighted>
5.8776

> <Gold.Goldscore.Internal.Correction.Weighted>
-1.5085

> <Gold.Protein.RotatedTorsions>
[ 3781 1176 1175 1172 ] final -115.15 input   60.00 | X-H torsion
[ 3847 1247 1246 1244 ] final  154.15 input   60.00 | X-H torsion
[ 4507 1931 1930 1928 ] final   89.66 input   60.00 | X-H torsion
[ 3677 1070 1069 1066 ] final  -92.22 input   60.00 | X-H torsion
[ 3525  925  924  922 ] final  -14.12 input   59.99 | X-H torsion
[ 4531 1957 1955 1953 ] final  144.81 input   60.00 | X-H torsion

> <Gold.Protein.ActiveResidues>
 PHE267  PRO268  MET310  ASP335  TRP336  MET339  TYR343  THR360  PRO361  ILE363
 PRO371  SER374  ILE375  ASN378  PHE381  TYR383  GLN384  PHE387  LEU408  LEU417
 MET419  LEU428  TYR466  MET469  ASN472  ASP496  VAL498  LEU499  MET503  HIS524
 TRP525

> <Gold.Protein.RotatedAtoms>
   -3.7034  -29.5181  -30.2733 H   0  0  0  0  0  0  0  0  0  0  0  0  # atno 3525 bound_to 925
  -11.8498  -23.7985  -31.3857 H   0  0  0  0  0  0  0  0  0  0  0  0  # atno 3677 bound_to 1070
   -9.5166  -36.3267  -33.8145 H   0  0  0  0  0  0  0  0  0  0  0  0  # atno 3781 bound_to 1176
  -14.4118  -27.7722  -37.9262 H   0  0  0  0  0  0  0  0  0  0  0  0  # atno 3847 bound_to 1247
  -12.4628  -24.2617  -38.9928 H   0  0  0  0  0  0  0  0  0  0  0  0  # atno 4507 bound_to 1931
   -1.9835  -34.0454  -36.8818 H   0  0  0  0  0  0  0  0  0  0  0  0  # atno 4531 bound_to 1957
   -9.7752  -37.0361  -32.3730 LP  0  0  0  0  0  0  0  0  0  0  0  0  # atno 5205 bound_to 1176
  -10.8226  -37.2742  -33.6030 LP  0  0  0  0  0  0  0  0  0  0  0  0  # atno 5206 bound_to 1176
  -15.2203  -28.9545  -37.1538 LP  0  0  0  0  0  0  0  0  0  0  0  0  # atno 5215 bound_to 1247
  -15.9377  -27.5126  -37.4238 LP  0  0  0  0  0  0  0  0  0  0  0  0  # atno 5216 bound_to 1247
  -13.5397  -25.3783  -39.4842 LP  0  0  0  0  0  0  0  0  0  0  0  0  # atno 5217 bound_to 1931
  -13.1966  -24.0964  -40.4358 LP  0  0  0  0  0  0  0  0  0  0  0  0  # atno 5218 bound_to 1931
  -11.2568  -22.3739  -30.8689 LP  0  0  0  0  0  0  0  0  0  0  0  0  # atno 5224 bound_to 1070
  -12.7482  -22.8556  -30.4100 LP  0  0  0  0  0  0  0  0  0  0  0  0  # atno 5225 bound_to 1070

$$$$
IA_108.cdx|SeH_inactivess_minimized|sdf|10|dock8
  -GOLD-   4172118453D 1   1.00000     0.00000

 29 29  0  0  0  0  0  0  0  0  1 V2000
  -17.9388  -25.3308  -36.2735 C   0  0  0  0  0  0  0  0  0  0  0  0
  -17.0153  -25.1035  -37.0061 C   0  0  0  0  0  0  0  0  0  0  0  0
  -13.5961  -25.5561  -37.2447 C   0  0  0  0  0  0  0  0  0  0  0  0
  -11.1315  -26.8888  -33.5009 C   0  0  0  0  0  0  0  0  0  0  0  0
  -10.8599  -25.4279  -33.8499 C   0  0  0  0  0  0  0  0  0  0  0  0
  -12.0758  -27.5477  -34.5028 C   0  0  0  0  0  0  0  0  0  0  0  0
  -10.3586  -25.2764  -35.2867 C   0  0  0  0  0  0  0  0  0  0  0  0
  -11.5714  -27.3915  -35.9381 C   0  0  0  0  0  0  0  0  0  0  0  0
  -11.2910  -25.9307  -36.3149 C   0  0  0  0  0  0  0  0  0  0  0  0
  -15.8858  -24.8235  -37.8962 C   0  0  0  0  0  0  0  0  0  0  0  0
  -12.5461  -25.1818  -36.4098 N   0  0  0  0  0  0  0  0  0  0  0  0
  -14.6659  -24.6706  -37.1390 N   0  0  0  0  0  0  0  0  0  0  0  0
  -13.5823  -26.5418  -37.9808 O   0  0  0  0  0  0  0  0  0  0  0  0
  -18.7580  -25.5330  -35.6237 H   0  0  0  0  0  0  0  0  0  0  0  0
  -10.1849  -27.4419  -33.4677 H   0  0  0  0  0  0  0  0  0  0  0  0
  -11.5690  -26.9475  -32.4954 H   0  0  0  0  0  0  0  0  0  0  0  0
  -11.7746  -24.8403  -33.7159 H   0  0  0  0  0  0  0  0  0  0  0  0
  -10.1124  -25.0199  -33.1591 H   0  0  0  0  0  0  0  0  0  0  0  0
  -12.1745  -28.6137  -34.2658 H   0  0  0  0  0  0  0  0  0  0  0  0
  -13.0742  -27.1060  -34.4140 H   0  0  0  0  0  0  0  0  0  0  0  0
  -10.2400  -24.2038  -35.5203 H   0  0  0  0  0  0  0  0  0  0  0  0
   -9.3479  -25.7107  -35.3675 H   0  0  0  0  0  0  0  0  0  0  0  0
  -10.6574  -27.9947  -36.0707 H   0  0  0  0  0  0  0  0  0  0  0  0
  -12.3133  -27.8205  -36.6341 H   0  0  0  0  0  0  0  0  0  0  0  0
  -10.8385  -25.8861  -37.3023 H   0  0  0  0  0  0  0  0  0  0  0  0
  -16.0695  -23.9081  -38.4672 H   0  0  0  0  0  0  0  0  0  0  0  0
  -15.7630  -25.6397  -38.6152 H   0  0  0  0  0  0  0  0  0  0  0  0
  -12.6561  -24.3490  -35.8390 H   0  0  0  0  0  0  0  0  0  0  0  0
  -14.6062  -23.9096  -36.4699 H   0  0  0  0  0  0  0  0  0  0  0  0
  1  2  3  0  0  0  0
  2 10  1  0  0  0  0
  3 11  1  0  0  0  0
  3 12  1  0  0  0  0
  3 13  2  0  0  0  0
  4  5  1  0  0  0  0
  4  6  1  0  0  0  0
  5  7  1  0  0  0  0
  6  8  1  0  0  0  0
  7  9  1  0  0  0  0
  8  9  1  0  0  0  0
  9 11  1  0  0  0  0
 10 12  1  0  0  0  0
  1 14  1  0  0  0  0
  4 15  1  0  0  0  0
  4 16  1  0  0  0  0
  5 17  1  0  0  0  0
  5 18  1  0  0  0  0
  6 19  1  0  0  0  0
  6 20  1  0  0  0  0
  7 21  1  0  0  0  0
  7 22  1  0  0  0  0
  8 23  1  0  0  0  0
  8 24  1  0  0  0  0
  9 25  1  0  0  0  0
 10 26  1  0  0  0  0
 10 27  1  0  0  0  0
 11 28  1  0  0  0  0
 12 29  1  0  0  0  0
M  END
> <Name>
IA_108.cdx

> <SourceTag>
IA_108

> <Gold.Version>
5.2

> <Gold.Id.Protein>
6HGV|6HGV_protein|mol2

> <Gold.Goldscore.Fitness>
43.6560

> <Gold.Goldscore.Internal.Vdw>
-1.9988

> <Gold.Goldscore.Internal.Torsion>
-1.1904

> <Gold.Goldscore.External.Vdw>
28.3849

> <Gold.Goldscore.Internal.HBond>
0.0000

> <Gold.Goldscore.External.HBond>
6.3074

> <Gold.Goldscore.Internal.Correction>
-1.5085

> <Gold.Goldscore.Hbonds>
donor molecule, donor type, donor heavy atom, donor atom, acceptor molecule, acceptor atom, score
      P1  H  1247  3847       L1    13  0.25
      L1  H    11    28       P1   853  0.24
      L1  H    12    29       P1   853  0.73

> <Gold.Goldscore.Internal.Vdw.Weighted>
-1.9988

> <Gold.Goldscore.Internal.Torsion.Weighted>
-1.1904

> <Gold.Goldscore.External.Vdw.Weighted>
39.0292

> <Gold.Goldscore.Internal.HBond.Weighted>
0.0000

> <Gold.Goldscore.External.HBond.Weighted>
6.3074

> <Gold.Goldscore.Internal.Correction.Weighted>
-1.5085

> <Gold.Protein.RotatedTorsions>
[ 3781 1176 1175 1172 ] final -170.54 input   60.00 | X-H torsion
[ 3847 1247 1246 1244 ] final  159.14 input   60.00 | X-H torsion
[ 4507 1931 1930 1928 ] final  119.06 input   60.00 | X-H torsion
[ 3677 1070 1069 1066 ] final  -88.90 input   60.00 | X-H torsion
[ 3525  925  924  922 ] final  -87.98 input   59.99 | X-H torsion
[ 4531 1957 1955 1953 ] final   12.36 input   60.00 | X-H torsion

> <Gold.Protein.ActiveResidues>
 PHE267  PRO268  MET310  ASP335  TRP336  MET339  TYR343  THR360  PRO361  ILE363
 PRO371  SER374  ILE375  ASN378  PHE381  TYR383  GLN384  PHE387  LEU408  LEU417
 MET419  LEU428  TYR466  MET469  ASN472  ASP496  VAL498  LEU499  MET503  HIS524
 TRP525

> <Gold.Protein.RotatedAtoms>
   -3.4575  -29.7239  -29.1950 H   0  0  0  0  0  0  0  0  0  0  0  0  # atno 3525 bound_to 925
  -11.8994  -23.8132  -31.3696 H   0  0  0  0  0  0  0  0  0  0  0  0  # atno 3677 bound_to 1070
   -9.2468  -36.4529  -32.9969 H   0  0  0  0  0  0  0  0  0  0  0  0  # atno 3781 bound_to 1176
  -14.4505  -27.7015  -37.9380 H   0  0  0  0  0  0  0  0  0  0  0  0  # atno 3847 bound_to 1247
  -12.4436  -23.9418  -39.3435 H   0  0  0  0  0  0  0  0  0  0  0  0  # atno 4507 bound_to 1931
   -2.9743  -32.6635  -36.6695 H   0  0  0  0  0  0  0  0  0  0  0  0  # atno 4531 bound_to 1957
  -10.5101  -37.4204  -32.6561 LP  0  0  0  0  0  0  0  0  0  0  0  0  # atno 5205 bound_to 1176
  -10.3594  -36.7628  -34.1432 LP  0  0  0  0  0  0  0  0  0  0  0  0  # atno 5206 bound_to 1176
  -15.1433  -28.9641  -37.1804 LP  0  0  0  0  0  0  0  0  0  0  0  0  # atno 5215 bound_to 1247
  -15.9758  -27.5742  -37.3853 LP  0  0  0  0  0  0  0  0  0  0  0  0  # atno 5216 bound_to 1247
  -13.2700  -25.3211  -39.0932 LP  0  0  0  0  0  0  0  0  0  0  0  0  # atno 5217 bound_to 1931
  -13.4856  -24.4758  -40.4736 LP  0  0  0  0  0  0  0  0  0  0  0  0  # atno 5218 bound_to 1931
  -11.2280  -22.4066  -30.9017 LP  0  0  0  0  0  0  0  0  0  0  0  0  # atno 5224 bound_to 1070
  -12.7270  -22.8081  -30.3933 LP  0  0  0  0  0  0  0  0  0  0  0  0  # atno 5225 bound_to 1070

$$$$
IA_108.cdx|SeH_inactivess_minimized|sdf|10|dock3
  -GOLD-   4172118443D 1   1.00000     0.00000

 29 29  0  0  0  0  0  0  0  0  1 V2000
  -17.8645  -25.2788  -36.2740 C   0  0  0  0  0  0  0  0  0  0  0  0
  -16.9336  -25.0277  -36.9894 C   0  0  0  0  0  0  0  0  0  0  0  0
  -13.5366  -25.5408  -37.2234 C   0  0  0  0  0  0  0  0  0  0  0  0
  -11.0557  -26.9070  -33.4650 C   0  0  0  0  0  0  0  0  0  0  0  0
  -10.7422  -25.4644  -33.8528 C   0  0  0  0  0  0  0  0  0  0  0  0
  -12.0450  -27.5543  -34.4304 C   0  0  0  0  0  0  0  0  0  0  0  0
  -10.2693  -25.3618  -35.3035 C   0  0  0  0  0  0  0  0  0  0  0  0
  -11.5687  -27.4471  -35.8797 C   0  0  0  0  0  0  0  0  0  0  0  0
  -11.2471  -26.0054  -36.2956 C   0  0  0  0  0  0  0  0  0  0  0  0
  -15.8001  -24.7240  -37.8664 C   0  0  0  0  0  0  0  0  0  0  0  0
  -12.4776  -25.2155  -36.3793 N   0  0  0  0  0  0  0  0  0  0  0  0
  -14.5780  -24.6239  -37.1037 N   0  0  0  0  0  0  0  0  0  0  0  0
  -13.5519  -26.5126  -37.9777 O   0  0  0  0  0  0  0  0  0  0  0  0
  -18.6903  -25.5010  -35.6393 H   0  0  0  0  0  0  0  0  0  0  0  0
  -10.1282  -27.4919  -33.4404 H   0  0  0  0  0  0  0  0  0  0  0  0
  -11.4716  -26.9286  -32.4489 H   0  0  0  0  0  0  0  0  0  0  0  0
  -11.6329  -24.8426  -33.7118 H   0  0  0  0  0  0  0  0  0  0  0  0
   -9.9654  -25.0678  -33.1882 H   0  0  0  0  0  0  0  0  0  0  0  0
  -12.1747  -28.6108  -34.1673 H   0  0  0  0  0  0  0  0  0  0  0  0
  -13.0253  -27.0762  -34.3294 H   0  0  0  0  0  0  0  0  0  0  0  0
  -10.1193  -24.2994  -35.5638 H   0  0  0  0  0  0  0  0  0  0  0  0
   -9.2762  -25.8327  -35.3970 H   0  0  0  0  0  0  0  0  0  0  0  0
  -10.6793  -28.0845  -36.0190 H   0  0  0  0  0  0  0  0  0  0  0  0
  -12.3408  -27.8650  -36.5492 H   0  0  0  0  0  0  0  0  0  0  0  0
  -10.8163  -25.9982  -37.2936 H   0  0  0  0  0  0  0  0  0  0  0  0
  -15.9701  -23.7808  -38.3948 H   0  0  0  0  0  0  0  0  0  0  0  0
  -15.6892  -25.5081  -38.6220 H   0  0  0  0  0  0  0  0  0  0  0  0
  -12.5628  -24.3904  -35.7933 H   0  0  0  0  0  0  0  0  0  0  0  0
  -14.4962  -23.8777  -36.4203 H   0  0  0  0  0  0  0  0  0  0  0  0
  1  2  3  0  0  0  0
  2 10  1  0  0  0  0
  3 11  1  0  0  0  0
  3 12  1  0  0  0  0
  3 13  2  0  0  0  0
  4  5  1  0  0  0  0
  4  6  1  0  0  0  0
  5  7  1  0  0  0  0
  6  8  1  0  0  0  0
  7  9  1  0  0  0  0
  8  9  1  0  0  0  0
  9 11  1  0  0  0  0
 10 12  1  0  0  0  0
  1 14  1  0  0  0  0
  4 15  1  0  0  0  0
  4 16  1  0  0  0  0
  5 17  1  0  0  0  0
  5 18  1  0  0  0  0
  6 19  1  0  0  0  0
  6 20  1  0  0  0  0
  7 21  1  0  0  0  0
  7 22  1  0  0  0  0
  8 23  1  0  0  0  0
  8 24  1  0  0  0  0
  9 25  1  0  0  0  0
 10 26  1  0  0  0  0
 10 27  1  0  0  0  0
 11 28  1  0  0  0  0
 12 29  1  0  0  0  0
M  END
> <Name>
IA_108.cdx

> <SourceTag>
IA_108

> <Gold.Version>
5.2

> <Gold.Id.Protein>
6HGV|6HGV_protein|mol2

> <Gold.Goldscore.Fitness>
43.4240

> <Gold.Goldscore.Internal.Vdw>
-1.4742

> <Gold.Goldscore.Internal.Torsion>
-1.1860

> <Gold.Goldscore.External.Vdw>
28.1609

> <Gold.Goldscore.Internal.HBond>
0.0000

> <Gold.Goldscore.External.HBond>
5.8508

> <Gold.Goldscore.Internal.Correction>
-1.5121

> <Gold.Goldscore.Hbonds>
donor molecule, donor type, donor heavy atom, donor atom, acceptor molecule, acceptor atom, score
      L1  H    11    28       P1   853  0.16
      L1  H    12    29       P1   853  0.82

> <Gold.Goldscore.Internal.Vdw.Weighted>
-1.4742

> <Gold.Goldscore.Internal.Torsion.Weighted>
-1.1860

> <Gold.Goldscore.External.Vdw.Weighted>
38.7212

> <Gold.Goldscore.Internal.HBond.Weighted>
0.0000

> <Gold.Goldscore.External.HBond.Weighted>
5.8508

> <Gold.Goldscore.Internal.Correction.Weighted>
-1.5121

> <Gold.Protein.RotatedTorsions>
[ 3781 1176 1175 1172 ] final   37.66 input   60.00 | X-H torsion
[ 3847 1247 1246 1244 ] final  -59.08 input   60.00 | X-H torsion
[ 4507 1931 1930 1928 ] final  115.29 input   60.00 | X-H torsion
[ 3677 1070 1069 1066 ] final  -96.88 input   60.00 | X-H torsion
[ 3525  925  924  922 ] final    0.65 input   59.99 | X-H torsion
[ 4531 1957 1955 1953 ] final  111.42 input   60.00 | X-H torsion

> <Gold.Protein.ActiveResidues>
 PHE267  PRO268  MET310  ASP335  TRP336  MET339  TYR343  THR360  PRO361  ILE363
 PRO371  SER374  ILE375  ASN378  PHE381  TYR383  GLN384  PHE387  LEU408  LEU417
 MET419  LEU428  TYR466  MET469  ASN472  ASP496  VAL498  LEU499  MET503  HIS524
 TRP525

> <Gold.Protein.RotatedAtoms>
   -3.5912  -29.5477  -30.4843 H   0  0  0  0  0  0  0  0  0  0  0  0  # atno 3525 bound_to 925
  -11.7806  -23.7734  -31.4054 H   0  0  0  0  0  0  0  0  0  0  0  0  # atno 3677 bound_to 1070
  -10.7725  -37.4326  -33.0989 H   0  0  0  0  0  0  0  0  0  0  0  0  # atno 3781 bound_to 1176
  -16.0639  -27.8836  -37.2351 H   0  0  0  0  0  0  0  0  0  0  0  0  # atno 3847 bound_to 1247
  -12.4368  -23.9750  -39.2921 H   0  0  0  0  0  0  0  0  0  0  0  0  # atno 4507 bound_to 1931
   -2.5104  -34.0057  -36.7809 H   0  0  0  0  0  0  0  0  0  0  0  0  # atno 4531 bound_to 1957
   -9.9253  -36.4841  -34.1142 LP  0  0  0  0  0  0  0  0  0  0  0  0  # atno 5205 bound_to 1176
   -9.4077  -36.7125  -32.5824 LP  0  0  0  0  0  0  0  0  0  0  0  0  # atno 5206 bound_to 1176
  -14.6759  -27.4275  -37.9517 LP  0  0  0  0  0  0  0  0  0  0  0  0  # atno 5215 bound_to 1247
  -14.8185  -28.9274  -37.3219 LP  0  0  0  0  0  0  0  0  0  0  0  0  # atno 5216 bound_to 1247
  -13.3091  -25.3400  -39.1374 LP  0  0  0  0  0  0  0  0  0  0  0  0  # atno 5217 bound_to 1931
  -13.4532  -24.4234  -40.4812 LP  0  0  0  0  0  0  0  0  0  0  0  0  # atno 5218 bound_to 1931
  -11.3013  -22.3315  -30.8229 LP  0  0  0  0  0  0  0  0  0  0  0  0  # atno 5224 bound_to 1070
  -12.7734  -22.9232  -30.4361 LP  0  0  0  0  0  0  0  0  0  0  0  0  # atno 5225 bound_to 1070

$$$$
IA_108.cdx|SeH_inactivess_minimized|sdf|10|dock9
  -GOLD-   4172118453D 1   1.00000     0.00000

 29 29  0  0  0  0  0  0  0  0  1 V2000
  -16.3025  -25.3834  -39.1989 C   0  0  0  0  0  0  0  0  0  0  0  0
  -16.2966  -25.4390  -37.9997 C   0  0  0  0  0  0  0  0  0  0  0  0
  -13.7961  -25.5991  -36.4637 C   0  0  0  0  0  0  0  0  0  0  0  0
   -9.8638  -27.5217  -33.9898 C   0  0  0  0  0  0  0  0  0  0  0  0
  -10.6180  -26.2357  -33.6625 C   0  0  0  0  0  0  0  0  0  0  0  0
  -10.4743  -28.2522  -35.1828 C   0  0  0  0  0  0  0  0  0  0  0  0
  -10.7359  -25.3255  -34.8858 C   0  0  0  0  0  0  0  0  0  0  0  0
  -10.5922  -27.3374  -36.4026 C   0  0  0  0  0  0  0  0  0  0  0  0
  -11.3477  -26.0364  -36.1003 C   0  0  0  0  0  0  0  0  0  0  0  0
  -16.2842  -25.5079  -36.5363 C   0  0  0  0  0  0  0  0  0  0  0  0
  -12.7653  -26.3170  -35.8624 N   0  0  0  0  0  0  0  0  0  0  0  0
  -15.0427  -26.0736  -36.0632 N   0  0  0  0  0  0  0  0  0  0  0  0
  -13.6288  -24.6663  -37.2482 O   0  0  0  0  0  0  0  0  0  0  0  0
  -16.3079  -25.3335  -40.2628 H   0  0  0  0  0  0  0  0  0  0  0  0
   -8.8123  -27.2893  -34.1987 H   0  0  0  0  0  0  0  0  0  0  0  0
   -9.8747  -28.1832  -33.1134 H   0  0  0  0  0  0  0  0  0  0  0  0
  -11.6181  -26.4796  -33.2882 H   0  0  0  0  0  0  0  0  0  0  0  0
  -10.0968  -25.7004  -32.8598 H   0  0  0  0  0  0  0  0  0  0  0  0
   -9.8537  -29.1196  -35.4371 H   0  0  0  0  0  0  0  0  0  0  0  0
  -11.4647  -28.6348  -34.9133 H   0  0  0  0  0  0  0  0  0  0  0  0
  -11.3443  -24.4418  -34.6254 H   0  0  0  0  0  0  0  0  0  0  0  0
   -9.7383  -24.9325  -35.1447 H   0  0  0  0  0  0  0  0  0  0  0  0
   -9.5830  -27.1049  -36.7825 H   0  0  0  0  0  0  0  0  0  0  0  0
  -11.0983  -27.8815  -37.2191 H   0  0  0  0  0  0  0  0  0  0  0  0
  -11.3118  -25.3807  -36.9666 H   0  0  0  0  0  0  0  0  0  0  0  0
  -17.1165  -26.1211  -36.1774 H   0  0  0  0  0  0  0  0  0  0  0  0
  -16.4077  -24.5064  -36.1122 H   0  0  0  0  0  0  0  0  0  0  0  0
  -13.0084  -27.0720  -35.2279 H   0  0  0  0  0  0  0  0  0  0  0  0
  -15.0843  -26.8794  -35.4472 H   0  0  0  0  0  0  0  0  0  0  0  0
  1  2  3  0  0  0  0
  2 10  1  0  0  0  0
  3 11  1  0  0  0  0
  3 12  1  0  0  0  0
  3 13  2  0  0  0  0
  4  5  1  0  0  0  0
  4  6  1  0  0  0  0
  5  7  1  0  0  0  0
  6  8  1  0  0  0  0
  7  9  1  0  0  0  0
  8  9  1  0  0  0  0
  9 11  1  0  0  0  0
 10 12  1  0  0  0  0
  1 14  1  0  0  0  0
  4 15  1  0  0  0  0
  4 16  1  0  0  0  0
  5 17  1  0  0  0  0
  5 18  1  0  0  0  0
  6 19  1  0  0  0  0
  6 20  1  0  0  0  0
  7 21  1  0  0  0  0
  7 22  1  0  0  0  0
  8 23  1  0  0  0  0
  8 24  1  0  0  0  0
  9 25  1  0  0  0  0
 10 26  1  0  0  0  0
 10 27  1  0  0  0  0
 11 28  1  0  0  0  0
 12 29  1  0  0  0  0
M  END
> <Name>
IA_108.cdx

> <SourceTag>
IA_108

> <Gold.Version>
5.2

> <Gold.Id.Protein>
6HGV|6HGV_protein|mol2

> <Gold.Goldscore.Fitness>
42.6447

> <Gold.Goldscore.Internal.Vdw>
-0.9703

> <Gold.Goldscore.Internal.Torsion>
-1.2160

> <Gold.Goldscore.External.Vdw>
31.1654

> <Gold.Goldscore.Internal.HBond>
0.0000

> <Gold.Goldscore.External.HBond>
0.4700

> <Gold.Goldscore.Internal.Correction>
-1.5085

> <Gold.Goldscore.Hbonds>
donor molecule, donor type, donor heavy atom, donor atom, acceptor molecule, acceptor atom, score
      P1  H  1931  4507       L1    13  0.24

> <Gold.Goldscore.Internal.Vdw.Weighted>
-0.9703

> <Gold.Goldscore.Internal.Torsion.Weighted>
-1.2160

> <Gold.Goldscore.External.Vdw.Weighted>
42.8525

> <Gold.Goldscore.Internal.HBond.Weighted>
0.0000

> <Gold.Goldscore.External.HBond.Weighted>
0.4700

> <Gold.Goldscore.Internal.Correction.Weighted>
-1.5085

> <Gold.Protein.RotatedTorsions>
[ 3781 1176 1175 1172 ] final  161.31 input   60.00 | X-H torsion
[ 3847 1247 1246 1244 ] final  111.43 input   60.00 | X-H torsion
[ 4507 1931 1930 1928 ] final   25.41 input   60.00 | X-H torsion
[ 3677 1070 1069 1066 ] final  -89.72 input   60.00 | X-H torsion
[ 3525  925  924  922 ] final  124.92 input   59.99 | X-H torsion
[ 4531 1957 1955 1953 ] final   28.83 input   60.00 | X-H torsion

> <Gold.Protein.ActiveResidues>
 PHE267  PRO268  MET310  ASP335  TRP336  MET339  TYR343  THR360  PRO361  ILE363
 PRO371  SER374  ILE375  ASN378  PHE381  TYR383  GLN384  PHE387  LEU408  LEU417
 MET419  LEU428  TYR466  MET469  ASN472  ASP496  VAL498  LEU499  MET503  HIS524
 TRP525

> <Gold.Protein.RotatedAtoms>
   -2.0961  -30.2204  -30.2557 H   0  0  0  0  0  0  0  0  0  0  0  0  # atno 3525 bound_to 925
  -11.8871  -23.8098  -31.3738 H   0  0  0  0  0  0  0  0  0  0  0  0  # atno 3677 bound_to 1070
   -9.3809  -36.6811  -32.6264 H   0  0  0  0  0  0  0  0  0  0  0  0  # atno 3781 bound_to 1176
  -14.3389  -28.4146  -37.7090 H   0  0  0  0  0  0  0  0  0  0  0  0  # atno 3847 bound_to 1247
  -12.9799  -25.1031  -38.8656 H   0  0  0  0  0  0  0  0  0  0  0  0  # atno 4507 bound_to 1931
   -3.0727  -32.9125  -36.6551 H   0  0  0  0  0  0  0  0  0  0  0  0  # atno 4531 bound_to 1957
  -10.7584  -37.4418  -33.0410 LP  0  0  0  0  0  0  0  0  0  0  0  0  # atno 5205 bound_to 1176
   -9.9761  -36.5115  -34.1314 LP  0  0  0  0  0  0  0  0  0  0  0  0  # atno 5206 bound_to 1176
  -15.8119  -28.6216  -37.0490 LP  0  0  0  0  0  0  0  0  0  0  0  0  # atno 5215 bound_to 1247
  -15.4196  -27.1986  -37.7473 LP  0  0  0  0  0  0  0  0  0  0  0  0  # atno 5216 bound_to 1247
  -13.6544  -24.8413  -40.3232 LP  0  0  0  0  0  0  0  0  0  0  0  0  # atno 5217 bound_to 1931
  -12.5611  -23.7861  -39.7249 LP  0  0  0  0  0  0  0  0  0  0  0  0  # atno 5218 bound_to 1931
  -11.2349  -22.3983  -30.8936 LP  0  0  0  0  0  0  0  0  0  0  0  0  # atno 5224 bound_to 1070
  -12.7325  -22.8198  -30.3973 LP  0  0  0  0  0  0  0  0  0  0  0  0  # atno 5225 bound_to 1070

$$$$
IA_109.cdx|SeH_inactivess_minimized|sdf|11|dock4
  -GOLD-   4172118453D 1   1.00000     0.00000

 28 28  0  0  0  0  0  0  0  0  1 V2000
  -17.6279  -25.2876  -35.7080 C   0  0  0  0  0  0  0  0  0  0  0  0
  -14.0137  -25.6171  -36.4585 C   0  0  0  0  0  0  0  0  0  0  0  0
  -10.2058  -27.2948  -33.7306 C   0  0  0  0  0  0  0  0  0  0  0  0
  -10.7020  -25.8746  -33.4725 C   0  0  0  0  0  0  0  0  0  0  0  0
  -11.0226  -27.9957  -34.8129 C   0  0  0  0  0  0  0  0  0  0  0  0
  -10.7572  -25.0548  -34.7622 C   0  0  0  0  0  0  0  0  0  0  0  0
  -11.0767  -27.1710  -36.0996 C   0  0  0  0  0  0  0  0  0  0  0  0
  -11.5735  -25.7378  -35.8676 C   0  0  0  0  0  0  0  0  0  0  0  0
  -16.4994  -25.5452  -36.6006 C   0  0  0  0  0  0  0  0  0  0  0  0
  -18.5249  -25.0804  -35.0014 N   0  0  0  0  0  0  0  0  0  0  0  0
  -12.9955  -25.7447  -35.5169 N   0  0  0  0  0  0  0  0  0  0  0  0
  -15.2681  -25.6559  -35.8546 N   0  0  0  0  0  0  0  0  0  0  0  0
  -13.8305  -25.4874  -37.6681 O   0  0  0  0  0  0  0  0  0  0  0  0
   -9.1495  -27.2684  -34.0250 H   0  0  0  0  0  0  0  0  0  0  0  0
  -10.2615  -27.8747  -32.7997 H   0  0  0  0  0  0  0  0  0  0  0  0
  -11.6970  -25.9088  -33.0158 H   0  0  0  0  0  0  0  0  0  0  0  0
  -10.0365  -25.3796  -32.7551 H   0  0  0  0  0  0  0  0  0  0  0  0
  -10.5806  -28.9760  -35.0274 H   0  0  0  0  0  0  0  0  0  0  0  0
  -12.0398  -28.1757  -34.4486 H   0  0  0  0  0  0  0  0  0  0  0  0
  -11.1840  -24.0602  -34.5439 H   0  0  0  0  0  0  0  0  0  0  0  0
   -9.7303  -24.8650  -35.1174 H   0  0  0  0  0  0  0  0  0  0  0  0
  -10.0752  -27.1502  -36.5614 H   0  0  0  0  0  0  0  0  0  0  0  0
  -11.7299  -27.6783  -36.8308 H   0  0  0  0  0  0  0  0  0  0  0  0
  -11.4936  -25.1673  -36.7894 H   0  0  0  0  0  0  0  0  0  0  0  0
  -16.6379  -26.4799  -37.1513 H   0  0  0  0  0  0  0  0  0  0  0  0
  -16.3760  -24.7340  -37.3237 H   0  0  0  0  0  0  0  0  0  0  0  0
  -13.2515  -25.8475  -34.5395 H   0  0  0  0  0  0  0  0  0  0  0  0
  -15.3238  -25.8128  -34.8532 H   0  0  0  0  0  0  0  0  0  0  0  0
  1  9  1  0  0  0  0
  1 10  3  0  0  0  0
  2 11  1  0  0  0  0
  2 12  1  0  0  0  0
  2 13  2  0  0  0  0
  3  4  1  0  0  0  0
  3  5  1  0  0  0  0
  4  6  1  0  0  0  0
  5  7  1  0  0  0  0
  6  8  1  0  0  0  0
  7  8  1  0  0  0  0
  8 11  1  0  0  0  0
  9 12  1  0  0  0  0
  3 14  1  0  0  0  0
  3 15  1  0  0  0  0
  4 16  1  0  0  0  0
  4 17  1  0  0  0  0
  5 18  1  0  0  0  0
  5 19  1  0  0  0  0
  6 20  1  0  0  0  0
  6 21  1  0  0  0  0
  7 22  1  0  0  0  0
  7 23  1  0  0  0  0
  8 24  1  0  0  0  0
  9 25  1  0  0  0  0
  9 26  1  0  0  0  0
 11 27  1  0  0  0  0
 12 28  1  0  0  0  0
M  END
> <Name>
IA_109.cdx

> <SourceTag>
IA_109

> <Gold.Version>
5.2

> <Gold.Id.Protein>
6HGV|6HGV_protein|mol2

> <Gold.Goldscore.Fitness>
45.1450

> <Gold.Goldscore.Internal.Vdw>
-1.2971

> <Gold.Goldscore.Internal.Torsion>
-1.1663

> <Gold.Goldscore.External.Vdw>
32.2910

> <Gold.Goldscore.Internal.HBond>
0.0000

> <Gold.Goldscore.External.HBond>
1.4331

> <Gold.Goldscore.Internal.Correction>
-1.7751

> <Gold.Goldscore.Hbonds>
donor molecule, donor type, donor heavy atom, donor atom, acceptor molecule, acceptor atom, score
      P1  H  1931  4507       L1    13  0.72

> <Gold.Goldscore.Internal.Vdw.Weighted>
-1.2971

> <Gold.Goldscore.Internal.Torsion.Weighted>
-1.1663

> <Gold.Goldscore.External.Vdw.Weighted>
44.4002

> <Gold.Goldscore.Internal.HBond.Weighted>
0.0000

> <Gold.Goldscore.External.HBond.Weighted>
1.4331

> <Gold.Goldscore.Internal.Correction.Weighted>
-1.7751

> <Gold.Protein.RotatedTorsions>
[ 3781 1176 1175 1172 ] final  113.06 input   60.00 | X-H torsion
[ 3847 1247 1246 1244 ] final  107.91 input   60.00 | X-H torsion
[ 4507 1931 1930 1928 ] final   15.71 input   60.00 | X-H torsion
[ 3677 1070 1069 1066 ] final  -74.50 input   60.00 | X-H torsion
[ 3525  925  924  922 ] final  177.91 input   59.99 | X-H torsion
[ 4531 1957 1955 1953 ] final -177.71 input   60.00 | X-H torsion

> <Gold.Protein.ActiveResidues>
 PHE267  PRO268  MET310  ASP335  TRP336  MET339  TYR343  THR360  PRO361  ILE363
 PRO371  SER374  ILE375  ASN378  PHE381  TYR383  GLN384  PHE387  LEU408  LEU417
 MET419  LEU428  TYR466  MET469  ASN472  ASP496  VAL498  LEU499  MET503  HIS524
 TRP525

> <Gold.Protein.RotatedAtoms>
   -2.2118  -30.2456  -29.4288 H   0  0  0  0  0  0  0  0  0  0  0  0  # atno 3525 bound_to 925
  -12.1149  -23.8452  -31.2820 H   0  0  0  0  0  0  0  0  0  0  0  0  # atno 3677 bound_to 1070
   -9.9345  -37.1452  -32.3735 H   0  0  0  0  0  0  0  0  0  0  0  0  # atno 3781 bound_to 1176
  -14.3544  -28.4641  -37.6841 H   0  0  0  0  0  0  0  0  0  0  0  0  # atno 3847 bound_to 1247
  -13.0866  -25.1975  -38.9344 H   0  0  0  0  0  0  0  0  0  0  0  0  # atno 4507 bound_to 1931
   -1.4770  -33.7338  -36.9727 H   0  0  0  0  0  0  0  0  0  0  0  0  # atno 4531 bound_to 1957
  -10.7752  -37.1815  -33.7662 LP  0  0  0  0  0  0  0  0  0  0  0  0  # atno 5205 bound_to 1176
   -9.4017  -36.3045  -33.6609 LP  0  0  0  0  0  0  0  0  0  0  0  0  # atno 5206 bound_to 1176
  -15.8493  -28.5774  -37.0512 LP  0  0  0  0  0  0  0  0  0  0  0  0  # atno 5215 bound_to 1247
  -15.3667  -27.1929  -37.7703 LP  0  0  0  0  0  0  0  0  0  0  0  0  # atno 5216 bound_to 1247
  -13.6051  -24.7092  -40.3976 LP  0  0  0  0  0  0  0  0  0  0  0  0  # atno 5217 bound_to 1931
  -12.5029  -23.8231  -39.5812 LP  0  0  0  0  0  0  0  0  0  0  0  0  # atno 5218 bound_to 1931
  -11.1319  -22.5707  -31.0423 LP  0  0  0  0  0  0  0  0  0  0  0  0  # atno 5224 bound_to 1070
  -12.6061  -22.6118  -30.3410 LP  0  0  0  0  0  0  0  0  0  0  0  0  # atno 5225 bound_to 1070

$$$$
IA_109.cdx|SeH_inactivess_minimized|sdf|11|dock8
  -GOLD-   4172118453D 1   1.00000     0.00000

 28 28  0  0  0  0  0  0  0  0  1 V2000
  -16.0182  -25.0009  -39.6488 C   0  0  0  0  0  0  0  0  0  0  0  0
  -13.9905  -25.5570  -37.5268 C   0  0  0  0  0  0  0  0  0  0  0  0
  -11.3714  -26.4719  -33.6823 C   0  0  0  0  0  0  0  0  0  0  0  0
  -11.2800  -25.0088  -34.1076 C   0  0  0  0  0  0  0  0  0  0  0  0
  -12.2451  -27.2876  -34.6315 C   0  0  0  0  0  0  0  0  0  0  0  0
  -10.8210  -24.8727  -35.5600 C   0  0  0  0  0  0  0  0  0  0  0  0
  -11.7835  -27.1463  -36.0826 C   0  0  0  0  0  0  0  0  0  0  0  0
  -11.6839  -25.6836  -36.5359 C   0  0  0  0  0  0  0  0  0  0  0  0
  -16.3348  -25.0864  -38.2243 C   0  0  0  0  0  0  0  0  0  0  0  0
  -15.7646  -24.9302  -40.7790 N   0  0  0  0  0  0  0  0  0  0  0  0
  -13.0202  -25.0936  -36.6417 N   0  0  0  0  0  0  0  0  0  0  0  0
  -15.1659  -24.8177  -37.4203 N   0  0  0  0  0  0  0  0  0  0  0  0
  -13.8316  -26.4983  -38.3029 O   0  0  0  0  0  0  0  0  0  0  0  0
  -10.3654  -26.9073  -33.6414 H   0  0  0  0  0  0  0  0  0  0  0  0
  -11.7842  -26.5306  -32.6665 H   0  0  0  0  0  0  0  0  0  0  0  0
  -12.2560  -24.5271  -33.9839 H   0  0  0  0  0  0  0  0  0  0  0  0
  -10.5764  -24.4811  -33.4528 H   0  0  0  0  0  0  0  0  0  0  0  0
  -12.2132  -28.3443  -34.3408 H   0  0  0  0  0  0  0  0  0  0  0  0
  -13.2875  -26.9626  -34.5441 H   0  0  0  0  0  0  0  0  0  0  0  0
  -10.8338  -23.8069  -35.8480 H   0  0  0  0  0  0  0  0  0  0  0  0
   -9.7671  -25.1884  -35.6400 H   0  0  0  0  0  0  0  0  0  0  0  0
  -10.8064  -27.6436  -36.2041 H   0  0  0  0  0  0  0  0  0  0  0  0
  -12.4792  -27.6944  -36.7417 H   0  0  0  0  0  0  0  0  0  0  0  0
  -11.2541  -25.6364  -37.5332 H   0  0  0  0  0  0  0  0  0  0  0  0
  -17.1021  -24.3581  -37.9466 H   0  0  0  0  0  0  0  0  0  0  0  0
  -16.6953  -26.0847  -37.9602 H   0  0  0  0  0  0  0  0  0  0  0  0
  -13.2505  -24.3082  -36.0403 H   0  0  0  0  0  0  0  0  0  0  0  0
  -15.2218  -24.0868  -36.7180 H   0  0  0  0  0  0  0  0  0  0  0  0
  1  9  1  0  0  0  0
  1 10  3  0  0  0  0
  2 11  1  0  0  0  0
  2 12  1  0  0  0  0
  2 13  2  0  0  0  0
  3  4  1  0  0  0  0
  3  5  1  0  0  0  0
  4  6  1  0  0  0  0
  5  7  1  0  0  0  0
  6  8  1  0  0  0  0
  7  8  1  0  0  0  0
  8 11  1  0  0  0  0
  9 12  1  0  0  0  0
  3 14  1  0  0  0  0
  3 15  1  0  0  0  0
  4 16  1  0  0  0  0
  4 17  1  0  0  0  0
  5 18  1  0  0  0  0
  5 19  1  0  0  0  0
  6 20  1  0  0  0  0
  6 21  1  0  0  0  0
  7 22  1  0  0  0  0
  7 23  1  0  0  0  0
  8 24  1  0  0  0  0
  9 25  1  0  0  0  0
  9 26  1  0  0  0  0
 11 27  1  0  0  0  0
 12 28  1  0  0  0  0
M  END
> <Name>
IA_109.cdx

> <SourceTag>
IA_109

> <Gold.Version>
5.2

> <Gold.Id.Protein>
6HGV|6HGV_protein|mol2

> <Gold.Goldscore.Fitness>
44.9171

> <Gold.Goldscore.Internal.Vdw>
-0.9095

> <Gold.Goldscore.Internal.Torsion>
-1.1909

> <Gold.Goldscore.External.Vdw>
27.8484

> <Gold.Goldscore.Internal.HBond>
0.0000

> <Gold.Goldscore.External.HBond>
6.9510

> <Gold.Goldscore.Internal.Correction>
-1.7748

> <Gold.Goldscore.Hbonds>
donor molecule, donor type, donor heavy atom, donor atom, acceptor molecule, acceptor atom, score
      L1  H    11    27       P1   853  0.98
      L1  H    12    28       P1   853  0.18

> <Gold.Goldscore.Internal.Vdw.Weighted>
-0.9095

> <Gold.Goldscore.Internal.Torsion.Weighted>
-1.1909

> <Gold.Goldscore.External.Vdw.Weighted>
38.2916

> <Gold.Goldscore.Internal.HBond.Weighted>
0.0000

> <Gold.Goldscore.External.HBond.Weighted>
6.9510

> <Gold.Goldscore.Internal.Correction.Weighted>
-1.7748

> <Gold.Protein.RotatedTorsions>
[ 3781 1176 1175 1172 ] final -135.30 input   60.00 | X-H torsion
[ 3847 1247 1246 1244 ] final  -25.98 input   60.00 | X-H torsion
[ 4507 1931 1930 1928 ] final  113.05 input   60.00 | X-H torsion
[ 3677 1070 1069 1066 ] final -151.43 input   60.00 | X-H torsion
[ 3525  925  924  922 ] final  -93.69 input   59.99 | X-H torsion
[ 4531 1957 1955 1953 ] final   85.24 input   60.00 | X-H torsion

> <Gold.Protein.ActiveResidues>
 PHE267  PRO268  MET310  ASP335  TRP336  MET339  TYR343  THR360  PRO361  ILE363
 PRO371  SER374  ILE375  ASN378  PHE381  TYR383  GLN384  PHE387  LEU408  LEU417
 MET419  LEU428  TYR466  MET469  ASN472  ASP496  VAL498  LEU499  MET503  HIS524
 TRP525

> <Gold.Protein.RotatedAtoms>
   -3.3887  -29.7587  -29.1426 H   0  0  0  0  0  0  0  0  0  0  0  0  # atno 3525 bound_to 925
  -11.1646  -23.1773  -31.3688 H   0  0  0  0  0  0  0  0  0  0  0  0  # atno 3677 bound_to 1070
   -9.3416  -36.3135  -33.5380 H   0  0  0  0  0  0  0  0  0  0  0  0  # atno 3781 bound_to 1176
  -15.9664  -28.3851  -37.0815 H   0  0  0  0  0  0  0  0  0  0  0  0  # atno 3847 bound_to 1247
  -12.4341  -23.9960  -39.2623 H   0  0  0  0  0  0  0  0  0  0  0  0  # atno 4507 bound_to 1931
   -2.8550  -33.7685  -36.7113 H   0  0  0  0  0  0  0  0  0  0  0  0  # atno 4531 bound_to 1957
  -10.0514  -37.2159  -32.3848 LP  0  0  0  0  0  0  0  0  0  0  0  0  # atno 5205 bound_to 1176
  -10.7227  -37.1077  -33.8695 LP  0  0  0  0  0  0  0  0  0  0  0  0  # atno 5206 bound_to 1176
  -15.1534  -27.2034  -37.8500 LP  0  0  0  0  0  0  0  0  0  0  0  0  # atno 5215 bound_to 1247
  -14.4391  -28.6465  -37.5783 LP  0  0  0  0  0  0  0  0  0  0  0  0  # atno 5216 bound_to 1247
  -13.3320  -25.3496  -39.1647 LP  0  0  0  0  0  0  0  0  0  0  0  0  # atno 5217 bound_to 1931
  -13.4332  -24.3926  -40.4839 LP  0  0  0  0  0  0  0  0  0  0  0  0  # atno 5218 bound_to 1931
  -12.0414  -22.2149  -30.3926 LP  0  0  0  0  0  0  0  0  0  0  0  0  # atno 5224 bound_to 1070
  -12.6536  -23.6401  -30.9032 LP  0  0  0  0  0  0  0  0  0  0  0  0  # atno 5225 bound_to 1070

$$$$
IA_109.cdx|SeH_inactivess_minimized|sdf|11|dock6
  -GOLD-   4172118453D 1   1.00000     0.00000

 28 28  0  0  0  0  0  0  0  0  1 V2000
  -17.8788  -25.2319  -35.8579 C   0  0  0  0  0  0  0  0  0  0  0  0
  -14.2759  -25.4559  -36.5854 C   0  0  0  0  0  0  0  0  0  0  0  0
  -10.3387  -26.9884  -33.9898 C   0  0  0  0  0  0  0  0  0  0  0  0
  -10.9360  -25.6324  -33.6233 C   0  0  0  0  0  0  0  0  0  0  0  0
  -11.1096  -27.6635  -35.1209 C   0  0  0  0  0  0  0  0  0  0  0  0
  -11.0608  -24.7233  -34.8467 C   0  0  0  0  0  0  0  0  0  0  0  0
  -11.2336  -26.7498  -36.3409 C   0  0  0  0  0  0  0  0  0  0  0  0
  -11.8328  -25.3789  -35.9996 C   0  0  0  0  0  0  0  0  0  0  0  0
  -16.7589  -25.5962  -36.7238 C   0  0  0  0  0  0  0  0  0  0  0  0
  -18.7673  -24.9392  -35.1713 N   0  0  0  0  0  0  0  0  0  0  0  0
  -13.2478  -25.5174  -35.6480 N   0  0  0  0  0  0  0  0  0  0  0  0
  -15.5204  -25.6177  -35.9816 N   0  0  0  0  0  0  0  0  0  0  0  0
  -14.1081  -25.2818  -37.7917 O   0  0  0  0  0  0  0  0  0  0  0  0
   -9.2894  -26.8617  -34.2831 H   0  0  0  0  0  0  0  0  0  0  0  0
  -10.3448  -27.6397  -33.1057 H   0  0  0  0  0  0  0  0  0  0  0  0
  -11.9225  -25.7745  -33.1689 H   0  0  0  0  0  0  0  0  0  0  0  0
  -10.3035  -25.1455  -32.8715 H   0  0  0  0  0  0  0  0  0  0  0  0
  -10.5983  -28.5893  -35.4103 H   0  0  0  0  0  0  0  0  0  0  0  0
  -12.1081  -27.9452  -34.7697 H   0  0  0  0  0  0  0  0  0  0  0  0
  -11.5579  -23.7824  -34.5526 H   0  0  0  0  0  0  0  0  0  0  0  0
  -10.0532  -24.4319  -35.1882 H   0  0  0  0  0  0  0  0  0  0  0  0
  -10.2397  -26.6201  -36.8015 H   0  0  0  0  0  0  0  0  0  0  0  0
  -11.8531  -27.2470  -37.1076 H   0  0  0  0  0  0  0  0  0  0  0  0
  -11.8017  -24.7358  -36.8754 H   0  0  0  0  0  0  0  0  0  0  0  0
  -16.9026  -26.5902  -37.1567 H   0  0  0  0  0  0  0  0  0  0  0  0
  -16.6424  -24.8780  -37.5404 H   0  0  0  0  0  0  0  0  0  0  0  0
  -13.4910  -25.6655  -34.6731 H   0  0  0  0  0  0  0  0  0  0  0  0
  -15.5595  -25.8029  -34.9843 H   0  0  0  0  0  0  0  0  0  0  0  0
  1  9  1  0  0  0  0
  1 10  3  0  0  0  0
  2 11  1  0  0  0  0
  2 12  1  0  0  0  0
  2 13  2  0  0  0  0
  3  4  1  0  0  0  0
  3  5  1  0  0  0  0
  4  6  1  0  0  0  0
  5  7  1  0  0  0  0
  6  8  1  0  0  0  0
  7  8  1  0  0  0  0
  8 11  1  0  0  0  0
  9 12  1  0  0  0  0
  3 14  1  0  0  0  0
  3 15  1  0  0  0  0
  4 16  1  0  0  0  0
  4 17  1  0  0  0  0
  5 18  1  0  0  0  0
  5 19  1  0  0  0  0
  6 20  1  0  0  0  0
  6 21  1  0  0  0  0
  7 22  1  0  0  0  0
  7 23  1  0  0  0  0
  8 24  1  0  0  0  0
  9 25  1  0  0  0  0
  9 26  1  0  0  0  0
 11 27  1  0  0  0  0
 12 28  1  0  0  0  0
M  END
> <Name>
IA_109.cdx

> <SourceTag>
IA_109

> <Gold.Version>
5.2

> <Gold.Id.Protein>
6HGV|6HGV_protein|mol2

> <Gold.Goldscore.Fitness>
44.6284

> <Gold.Goldscore.Internal.Vdw>
-1.2960

> <Gold.Goldscore.Internal.Torsion>
-1.1548

> <Gold.Goldscore.External.Vdw>
32.0652

> <Gold.Goldscore.Internal.HBond>
0.0000

> <Gold.Goldscore.External.HBond>
1.2148

> <Gold.Goldscore.Internal.Correction>
-1.7748

> <Gold.Goldscore.Hbonds>
donor molecule, donor type, donor heavy atom, donor atom, acceptor molecule, acceptor atom, score
      P1  H  1247  3847       L1    13  0.20
      P1  H  1931  4507       L1    13  0.41

> <Gold.Goldscore.Internal.Vdw.Weighted>
-1.2960

> <Gold.Goldscore.Internal.Torsion.Weighted>
-1.1548

> <Gold.Goldscore.External.Vdw.Weighted>
44.0896

> <Gold.Goldscore.Internal.HBond.Weighted>
0.0000

> <Gold.Goldscore.External.HBond.Weighted>
1.2148

> <Gold.Goldscore.Internal.Correction.Weighted>
-1.7748

> <Gold.Protein.RotatedTorsions>
[ 3781 1176 1175 1172 ] final   68.52 input   60.00 | X-H torsion
[ 3847 1247 1246 1244 ] final -176.84 input   60.00 | X-H torsion
[ 4507 1931 1930 1928 ] final   10.86 input   60.00 | X-H torsion
[ 3677 1070 1069 1066 ] final -100.87 input   60.00 | X-H torsion
[ 3525  925  924  922 ] final   20.03 input   59.99 | X-H torsion
[ 4531 1957 1955 1953 ] final   65.48 input   60.00 | X-H torsion

> <Gold.Protein.ActiveResidues>
 PHE267  PRO268  MET310  ASP335  TRP336  MET339  TYR343  THR360  PRO361  ILE363
 PRO371  SER374  ILE375  ASN378  PHE381  TYR383  GLN384  PHE387  LEU408  LEU417
 MET419  LEU428  TYR466  MET469  ASN472  ASP496  VAL498  LEU499  MET503  HIS524
 TRP525

> <Gold.Protein.RotatedAtoms>
   -3.3777  -29.6206  -30.7043 H   0  0  0  0  0  0  0  0  0  0  0  0  # atno 3525 bound_to 925
  -11.7224  -23.7480  -31.4196 H   0  0  0  0  0  0  0  0  0  0  0  0  # atno 3677 bound_to 1070
  -10.5159  -37.4214  -32.6720 H   0  0  0  0  0  0  0  0  0  0  0  0  # atno 3781 bound_to 1176
  -14.7087  -27.4099  -37.9482 H   0  0  0  0  0  0  0  0  0  0  0  0  # atno 3847 bound_to 1247
  -13.1400  -25.2382  -38.9765 H   0  0  0  0  0  0  0  0  0  0  0  0  # atno 4507 bound_to 1931
   -3.0261  -33.4991  -36.6741 H   0  0  0  0  0  0  0  0  0  0  0  0  # atno 4531 bound_to 1957
  -10.3474  -36.7536  -34.1463 LP  0  0  0  0  0  0  0  0  0  0  0  0  # atno 5205 bound_to 1176
   -9.2440  -36.4543  -32.9802 LP  0  0  0  0  0  0  0  0  0  0  0  0  # atno 5206 bound_to 1176
  -14.7873  -28.9165  -37.3383 LP  0  0  0  0  0  0  0  0  0  0  0  0  # atno 5215 bound_to 1247
  -16.0718  -27.9154  -37.2171 LP  0  0  0  0  0  0  0  0  0  0  0  0  # atno 5216 bound_to 1247
  -13.5746  -24.6415  -40.4267 LP  0  0  0  0  0  0  0  0  0  0  0  0  # atno 5217 bound_to 1931
  -12.4797  -23.8498  -39.5097 LP  0  0  0  0  0  0  0  0  0  0  0  0  # atno 5218 bound_to 1931
  -11.3427  -22.2989  -30.7840 LP  0  0  0  0  0  0  0  0  0  0  0  0  # atno 5224 bound_to 1070
  -12.7906  -22.9814  -30.4608 LP  0  0  0  0  0  0  0  0  0  0  0  0  # atno 5225 bound_to 1070

$$$$
